<?xml version="1.0" encoding="UTF-8"?>

<!-- generated on 2024-10-30 19:31:05.662471 by osmWebWizard.py UNKNOWN
<configuration>
    <net-file value="/opt/homebrew/Cellar/sumo/1.20.0/share/sumo/tools/2024-10-30-19-31-02/osm.net.xml.gz"/>
    <output-trip-file value="/opt/homebrew/Cellar/sumo/1.20.0/share/sumo/tools/2024-10-30-19-31-02/osm.passenger.trips.xml"/>
    <route-file value="/opt/homebrew/Cellar/sumo/1.20.0/share/sumo/tools/2024-10-30-19-31-02/osm.passenger.rou.xml"/>
    <prefix value="veh"/>
    <trip-attributes value="departLane=&quot;best&quot;"/>
    <fringe-start-attributes value="departSpeed=&quot;max&quot;"/>
    <vehicle-class value="passenger"/>
    <lanes value="True"/>
    <fringe-factor value="5"/>
    <allow-fringe.min-length value="1000.0"/>
    <via-edge-types value="highway.motorway,highway.motorway_link,highway.trunk_link,highway.primary_link,highway.secondary_link,highway.tertiary_link"/>
    <min-distance value="300.0"/>
    <min-distance.fringe value="10.0"/>
    <remove-loops value="True"/>
    <validate value="True"/>
    <insertion-density value="12.0"/>
</configuration>
-->

<!-- generated on 2024-10-30 19:31:05 by Eclipse SUMO duarouter Version 1.20.0
<configuration xmlns:xsi="http://www.w3.org/2001/XMLSchema-instance" xsi:noNamespaceSchemaLocation="http://sumo.dlr.de/xsd/duarouterConfiguration.xsd">

    <input>
        <net-file value="/opt/homebrew/Cellar/sumo/1.20.0/share/sumo/tools/2024-10-30-19-31-02/osm.net.xml.gz"/>
        <route-files value="/opt/homebrew/Cellar/sumo/1.20.0/share/sumo/tools/2024-10-30-19-31-02/osm.passenger.trips.xml"/>
    </input>

    <output>
        <output-file value="/opt/homebrew/Cellar/sumo/1.20.0/share/sumo/tools/2024-10-30-19-31-02/osm.passenger.trips.xml.tmp"/>
        <alternatives-output value="NUL"/>
        <write-trips value="true"/>
    </output>

    <processing>
        <remove-loops value="true"/>
    </processing>

    <time>
        <begin value="0.0"/>
        <end value="3600.0"/>
    </time>

    <report>
        <no-warnings value="true"/>
        <ignore-errors value="true"/>
        <no-step-log value="true"/>
    </report>

</configuration>
-->

<routes xmlns:xsi="http://www.w3.org/2001/XMLSchema-instance" xsi:noNamespaceSchemaLocation="http://sumo.dlr.de/xsd/routes_file.xsd">
    <vType id="veh_passenger" vClass="passenger"/>
    <trip id="veh0" type="veh_passenger" depart="0.00" departLane="best" from="1308987341" to="1308818013#1"/>
    <trip id="veh1" type="veh_passenger" depart="80.32" departLane="best" departSpeed="max" from="-1148776435" to="1308818013#1"/>
    <trip id="veh2" type="veh_passenger" depart="160.64" departLane="best" from="-11145241" to="1148776435"/>
    <trip id="veh3" type="veh_passenger" depart="240.96" departLane="best" from="11119550#1" to="-11159402"/>
    <trip id="veh4" type="veh_passenger" depart="321.27" departLane="best" from="1305878188" to="1308818013#1"/>
    <trip id="veh5" type="veh_passenger" depart="401.59" departLane="best" departSpeed="max" from="-1148776435" to="11119550#0"/>
    <trip id="veh6" type="veh_passenger" depart="481.91" departLane="best" departSpeed="max" from="11119550#1" to="1305906396#1"/>
    <trip id="veh7" type="veh_passenger" depart="562.23" departLane="best" departSpeed="max" from="-1148776435" to="1308818013#1"/>
    <trip id="veh8" type="veh_passenger" depart="642.55" departLane="best" departSpeed="max" from="11119550#1" to="1148776435"/>
    <trip id="veh9" type="veh_passenger" depart="722.87" departLane="best" from="-11145241" to="1148776435"/>
    <trip id="veh10" type="veh_passenger" depart="803.19" departLane="best" from="1305878188" to="1308818013#1"/>
    <trip id="veh11" type="veh_passenger" depart="883.51" departLane="best" departSpeed="max" from="-1148776435" to="-11135905#0"/>
    <trip id="veh12" type="veh_passenger" depart="963.82" departLane="best" from="104749566#0" to="1148776435"/>
    <trip id="veh13" type="veh_passenger" depart="1044.14" departLane="best" departSpeed="max" from="-1148776435" to="1308818013#0"/>
    <trip id="veh14" type="veh_passenger" depart="1124.46" departLane="best" from="-11145241" to="1148776435"/>
    <trip id="veh15" type="veh_passenger" depart="1204.78" departLane="best" departSpeed="max" from="-1148776435" to="11119550#1"/>
    <trip id="veh16" type="veh_passenger" depart="1285.10" departLane="best" departSpeed="max" from="-1148776435" to="-11135905#0"/>
    <trip id="veh17" type="veh_passenger" depart="1365.42" departLane="best" departSpeed="max" from="-1148776435" to="-11145241"/>
    <trip id="veh18" type="veh_passenger" depart="1445.74" departLane="best" from="-11119550#0" to="1148776435"/>
    <trip id="veh19" type="veh_passenger" depart="1526.06" departLane="best" departSpeed="max" from="-1148776435" to="11119550#0"/>
    <trip id="veh20" type="veh_passenger" depart="1606.37" departLane="best" departSpeed="max" from="11119550#1" to="1148776435"/>
    <trip id="veh21" type="veh_passenger" depart="1686.69" departLane="best" departSpeed="max" from="-1148776435" to="11145241"/>
    <trip id="veh22" type="veh_passenger" depart="1767.01" departLane="best" departSpeed="max" from="-1148776435" to="1308818013#0"/>
    <trip id="veh23" type="veh_passenger" depart="1847.33" departLane="best" departSpeed="max" from="11119550#1" to="1305878188"/>
    <trip id="veh24" type="veh_passenger" depart="1927.65" departLane="best" from="1308818013#1" to="1148776435"/>
    <trip id="veh25" type="veh_passenger" depart="2007.97" departLane="best" from="104749566#0" to="1305906396#1"/>
    <trip id="veh26" type="veh_passenger" depart="2088.29" departLane="best" from="11119550#1" to="1305878188"/>
    <trip id="veh27" type="veh_passenger" depart="2168.61" departLane="best" departSpeed="max" from="-1148776435" to="-11145241"/>
    <trip id="veh28" type="veh_passenger" depart="2248.92" departLane="best" from="1308818013#1" to="1148776435"/>
    <trip id="veh29" type="veh_passenger" depart="2329.24" departLane="best" from="-11145241" to="1148776435"/>
    <trip id="veh30" type="veh_passenger" depart="2409.56" departLane="best" departSpeed="max" from="11119550#1" to="1148776435"/>
    <trip id="veh31" type="veh_passenger" depart="2489.88" departLane="best" departSpeed="max" from="11119550#1" to="1305878188"/>
    <trip id="veh32" type="veh_passenger" depart="2570.20" departLane="best" from="11135905#0" to="1148776435"/>
    <trip id="veh33" type="veh_passenger" depart="2650.52" departLane="best" from="11135905#1" to="1148776435"/>
    <trip id="veh34" type="veh_passenger" depart="2730.84" departLane="best" from="104749566#0" to="1148776435"/>
    <trip id="veh35" type="veh_passenger" depart="2811.15" departLane="best" from="1308818013#1" to="1148776435"/>
    <trip id="veh36" type="veh_passenger" depart="2891.47" departLane="best" from="1305878188" to="11119550#0"/>
    <trip id="veh37" type="veh_passenger" depart="2971.79" departLane="best" departSpeed="max" from="11119550#1" to="1305878188"/>
    <trip id="veh38" type="veh_passenger" depart="3052.11" departLane="best" departSpeed="max" from="11119550#1" to="1305878188"/>
    <trip id="veh39" type="veh_passenger" depart="3132.43" departLane="best" from="1308987341" to="1308818013#1"/>
    <trip id="veh40" type="veh_passenger" depart="3212.75" departLane="best" from="1305878188" to="11119550#1"/>
    <trip id="veh41" type="veh_passenger" depart="3293.07" departLane="best" from="11119550#1" to="1305906396#1"/>
    <trip id="veh42" type="veh_passenger" depart="3373.39" departLane="best" departSpeed="max" from="11119550#1" to="-11159402"/>
    <trip id="veh43" type="veh_passenger" depart="3453.70" departLane="best" from="11135905#0" to="1148776435"/>
    <trip id="veh44" type="veh_passenger" depart="3534.02" departLane="best" departSpeed="max" from="-1148776435" to="11119550#1"/>
</routes>
