<?xml version="1.0" encoding="UTF-8"?>

<!-- generated on 2024-10-30 18:36:50 by Eclipse SUMO netconvert Version 1.21.0
<netconvertConfiguration xmlns:xsi="http://www.w3.org/2001/XMLSchema-instance" xsi:noNamespaceSchemaLocation="http://sumo.dlr.de/xsd/netconvertConfiguration.xsd">

    <input>
        <type-files value="${SUMO_HOME}\data\typemap\osmNetconvert.typ.xml"/>
        <osm-files value="osm_bbox.osm.xml.gz"/>
    </input>

    <output>
        <output-file value="osm.net.xml.gz"/>
        <output.street-names value="true"/>
        <output.original-names value="true"/>
    </output>

    <projection>
        <proj.utm value="true"/>
    </projection>

    <processing>
        <geometry.remove value="true"/>
        <roundabouts.guess value="true"/>
    </processing>

    <tls_building>
        <tls.discard-simple value="true"/>
        <tls.join value="true"/>
        <tls.guess-signals value="true"/>
        <tls.default-type value="actuated"/>
    </tls_building>

    <ramp_guessing>
        <ramps.guess value="true"/>
    </ramp_guessing>

    <junctions>
        <junctions.join value="true"/>
        <junctions.corner-detail value="5"/>
    </junctions>

</netconvertConfiguration>
-->

<net version="1.20" junctionCornerDetail="5" limitTurnSpeed="5.50" xmlns:xsi="http://www.w3.org/2001/XMLSchema-instance" xsi:noNamespaceSchemaLocation="http://sumo.dlr.de/xsd/net_file.xsd">

    <location netOffset="-562317.30,-2848820.25" convBoundary="0.00,0.00,1105.31,643.84" origBoundary="-80.378575,25.756080,-80.367553,25.761870" projParameter="+proj=utm +zone=17 +ellps=WGS84 +datum=WGS84 +units=m +no_defs"/>

    <type id="highway.cycleway" priority="1" numLanes="1" speed="5.56" allow="bicycle" oneway="0" width="2.00"/>
    <type id="highway.footway" priority="1" numLanes="1" speed="2.78" allow="pedestrian" oneway="1" width="2.00"/>
    <type id="highway.path" priority="1" numLanes="1" speed="5.56" allow="pedestrian bicycle" oneway="0" width="2.00"/>
    <type id="highway.pedestrian" priority="1" numLanes="1" speed="2.78" allow="pedestrian" oneway="1" width="2.00"/>
    <type id="highway.primary" priority="12" numLanes="2" speed="27.78" disallow="tram rail_urban rail rail_electric rail_fast ship container cable_car subway aircraft wheelchair scooter drone" oneway="0"/>
    <type id="highway.primary_link" priority="7" numLanes="1" speed="22.22" disallow="tram rail_urban rail rail_electric rail_fast ship container cable_car subway aircraft wheelchair scooter drone" oneway="0"/>
    <type id="highway.residential" priority="3" numLanes="1" speed="13.89" disallow="tram rail_urban rail rail_electric rail_fast ship container cable_car subway aircraft wheelchair scooter drone" oneway="0"/>
    <type id="highway.service" priority="1" numLanes="1" speed="5.56" allow="pedestrian delivery bicycle" oneway="0"/>
    <type id="highway.steps" priority="1" numLanes="1" speed="1.39" allow="pedestrian" oneway="1" width="2.00"/>
    <type id="highway.tertiary" priority="10" numLanes="1" speed="22.22" disallow="tram rail_urban rail rail_electric rail_fast ship container cable_car subway aircraft wheelchair scooter drone" oneway="0"/>
    <type id="highway.tertiary_link" priority="5" numLanes="1" speed="22.22" disallow="tram rail_urban rail rail_electric rail_fast ship container cable_car subway aircraft wheelchair scooter drone" oneway="0"/>
    <type id="highway.track" priority="1" numLanes="1" speed="5.56" allow="pedestrian motorcycle moped bicycle" oneway="0"/>
    <type id="highway.trunk" priority="13" numLanes="2" speed="27.78" disallow="pedestrian bicycle tram rail_urban rail rail_electric rail_fast ship container cable_car subway aircraft wheelchair scooter drone" oneway="0"/>
    <type id="highway.trunk_link" priority="8" numLanes="1" speed="22.22" disallow="pedestrian bicycle tram rail_urban rail rail_electric rail_fast ship container cable_car subway aircraft wheelchair scooter drone" oneway="0"/>
    <type id="highway.unclassified" priority="4" numLanes="1" speed="13.89" disallow="tram rail_urban rail rail_electric rail_fast ship container cable_car subway aircraft wheelchair scooter drone" oneway="0"/>

    <edge id=":10065803882_0" function="internal">
        <lane id=":10065803882_0_0" index="0" allow="pedestrian delivery bicycle" speed="5.56" length="9.41" shape="1076.67,557.76 1067.27,557.46"/>
    </edge>
    <edge id=":10065803882_1" function="internal">
        <lane id=":10065803882_1_0" index="0" allow="pedestrian delivery bicycle" speed="5.56" length="10.18" shape="1076.67,557.76 1073.92,557.28 1071.99,556.03 1070.87,554.02 1070.58,551.24"/>
    </edge>
    <edge id=":10065803882_2" function="internal">
        <lane id=":10065803882_2_0" index="0" allow="pedestrian delivery bicycle" speed="3.65" length="4.67" shape="1076.67,557.76 1075.49,556.92 1075.12,556.11 1075.55,555.32 1076.77,554.56"/>
    </edge>
    <edge id=":10065803882_3" function="internal">
        <lane id=":10065803882_3_0" index="0" allow="pedestrian delivery bicycle" speed="5.04" length="5.01" shape="1073.78,551.36 1073.92,552.72 1074.47,553.71 1075.42,554.32 1076.77,554.56"/>
    </edge>
    <edge id=":10065803882_4" function="internal">
        <lane id=":10065803882_4_0" index="0" allow="pedestrian delivery bicycle" speed="5.56" length="10.16" shape="1073.78,551.36 1073.28,554.10 1072.03,556.03 1070.03,557.15 1067.27,557.46"/>
    </edge>
    <edge id=":10065803882_5" function="internal">
        <lane id=":10065803882_5_0" index="0" allow="pedestrian delivery bicycle" speed="3.65" length="4.67" shape="1073.78,551.36 1072.93,552.53 1072.12,552.90 1071.33,552.47 1070.58,551.24"/>
    </edge>
    <edge id=":10065803882_6" function="internal">
        <lane id=":10065803882_6_0" index="0" allow="pedestrian delivery bicycle" speed="5.05" length="5.02" shape="1067.37,554.26 1068.73,554.11 1069.72,553.55 1070.34,552.60 1070.58,551.24"/>
    </edge>
    <edge id=":10065803882_7" function="internal">
        <lane id=":10065803882_7_0" index="0" allow="pedestrian delivery bicycle" speed="5.56" length="9.40" shape="1067.37,554.26 1076.77,554.56"/>
    </edge>
    <edge id=":10065803882_8" function="internal">
        <lane id=":10065803882_8_0" index="0" allow="pedestrian delivery bicycle" speed="3.65" length="4.67" shape="1067.37,554.26 1068.55,555.10 1068.92,555.91 1068.49,556.70 1067.27,557.46"/>
    </edge>
    <edge id=":10065803883_0" function="internal">
        <lane id=":10065803883_0_0" index="0" allow="pedestrian delivery bicycle" speed="5.03" length="5.03" shape="1077.54,533.81 1076.17,533.94 1075.18,534.48 1074.56,535.43 1074.31,536.79"/>
    </edge>
    <edge id=":10065803883_1" function="internal">
        <lane id=":10065803883_1_0" index="0" allow="pedestrian delivery bicycle" speed="5.56" length="9.46" shape="1077.54,533.81 1068.09,533.51"/>
    </edge>
    <edge id=":10065803883_2" function="internal">
        <lane id=":10065803883_2_0" index="0" allow="pedestrian delivery bicycle" speed="3.65" length="4.67" shape="1077.54,533.81 1076.39,532.95 1076.03,532.13 1076.47,531.35 1077.71,530.61"/>
    </edge>
    <edge id=":10065803883_3" function="internal">
        <lane id=":10065803883_3_0" index="0" allow="pedestrian delivery bicycle" speed="5.56" length="9.58" shape="1068.13,530.31 1077.71,530.61"/>
    </edge>
    <edge id=":10065803883_4" function="internal">
        <lane id=":10065803883_4_0" index="0" allow="pedestrian delivery bicycle" speed="5.56" length="10.27" shape="1068.13,530.31 1070.93,530.74 1072.88,531.97 1074.01,533.99 1074.31,536.79"/>
    </edge>
    <edge id=":10065803883_5" function="internal">
        <lane id=":10065803883_5_0" index="0" allow="pedestrian delivery bicycle" speed="3.65" length="4.67" shape="1068.13,530.31 1069.32,531.12 1069.71,531.93 1069.30,532.72 1068.09,533.51"/>
    </edge>
    <edge id=":10065803883_6" function="internal">
        <lane id=":10065803883_6_0" index="0" allow="pedestrian delivery bicycle" speed="5.01" length="5.03" shape="1071.11,536.68 1070.97,535.31 1070.41,534.32 1069.46,533.72 1068.09,533.51"/>
    </edge>
    <edge id=":10065803883_7" function="internal">
        <lane id=":10065803883_7_0" index="0" allow="pedestrian delivery bicycle" speed="5.56" length="10.25" shape="1071.11,536.68 1071.61,533.91 1072.88,531.97 1074.91,530.87 1077.71,530.61"/>
    </edge>
    <edge id=":10065803883_8" function="internal">
        <lane id=":10065803883_8_0" index="0" allow="pedestrian delivery bicycle" speed="3.65" length="4.67" shape="1071.11,536.68 1071.95,535.51 1072.77,535.14 1073.55,535.57 1074.31,536.79"/>
    </edge>
    <edge id=":1116154996_0" function="internal">
        <lane id=":1116154996_0_0" index="0" disallow="tram rail_urban rail rail_electric rail_fast ship container cable_car subway aircraft wheelchair scooter drone" speed="3.65" length="4.67" shape="773.59,3.78 774.93,3.26 775.81,3.39 776.24,4.18 776.20,5.62"/>
    </edge>
    <edge id=":1116178802_0" function="internal">
        <lane id=":1116178802_0_0" index="0" allow="pedestrian delivery bicycle" speed="9.17" length="7.29" shape="270.64,195.87 269.01,197.32 267.83,198.39 267.10,199.66 266.81,201.70"/>
    </edge>
    <edge id=":1116178802_1" function="internal">
        <lane id=":1116178802_1_0" index="0" allow="pedestrian delivery bicycle" speed="3.65" length="4.67" shape="270.64,195.87 269.22,196.14 268.38,195.85 268.11,195.00 268.40,193.59"/>
    </edge>
    <edge id=":1116178802_2" function="internal">
        <lane id=":1116178802_2_0" index="0" allow="pedestrian delivery bicycle" speed="5.45" length="9.00" shape="263.94,188.39 264.63,191.90 265.61,193.93 266.86,194.50 268.40,193.59"/>
    </edge>
    <edge id=":1116178802_3" function="internal">
        <lane id=":1116178802_3_0" index="0" allow="pedestrian delivery bicycle" speed="9.72" length="13.24" shape="263.94,188.39 264.19,191.62 264.09,194.38 263.84,197.45 263.61,201.60"/>
    </edge>
    <edge id=":1116178802_4" function="internal">
        <lane id=":1116178802_4_0" index="0" allow="pedestrian delivery bicycle" speed="7.26" length="9.49" shape="259.82,190.24 263.08,192.19 265.59,193.40 267.37,193.87 268.40,193.59"/>
    </edge>
    <edge id=":1116178802_5" function="internal">
        <lane id=":1116178802_5_0" index="0" disallow="tram rail_urban rail rail_electric rail_fast ship container cable_car subway aircraft wheelchair scooter drone" speed="10.24" length="13.67" shape="259.82,190.24 262.96,192.69 265.17,195.41 266.45,198.42 266.81,201.70"/>
        <lane id=":1116178802_5_1" index="1" disallow="tram rail_urban rail rail_electric rail_fast ship container cable_car subway aircraft wheelchair scooter drone" speed="7.69" length="13.67" shape="256.37,192.52 259.65,193.10 261.94,194.81 263.26,197.64 263.61,201.60"/>
    </edge>
    <edge id=":1116178812_0" function="internal">
        <lane id=":1116178812_0_0" index="0" disallow="tram rail_urban rail rail_electric rail_fast ship container cable_car subway aircraft wheelchair scooter drone" speed="8.25" length="6.27" shape="260.87,355.04 261.41,355.83 262.43,356.68 263.94,357.58 265.95,358.54"/>
    </edge>
    <edge id=":1116178812_1" function="internal">
        <lane id=":1116178812_1_0" index="0" disallow="tram rail_urban rail rail_electric rail_fast ship container cable_car subway aircraft wheelchair scooter drone" speed="13.89" length="6.55" shape="260.87,355.04 261.52,356.87 261.88,358.15 262.16,359.45 262.59,361.35"/>
    </edge>
    <edge id=":1116178817_0" function="internal">
        <lane id=":1116178817_0_0" index="0" allow="pedestrian bicycle" speed="6.45" length="5.50" width="2.00" shape="264.82,394.42 263.33,395.34 262.25,396.30 261.58,397.31 261.32,398.36"/>
    </edge>
    <edge id=":1116178817_1" function="internal">
        <lane id=":1116178817_1_0" index="0" allow="pedestrian bicycle" speed="5.56" length="10.04" width="2.00" shape="264.82,394.42 262.15,395.55 260.14,395.83 258.03,395.73 255.04,395.74"/>
    </edge>
    <edge id=":1116178817_2" function="internal">
        <lane id=":1116178817_2_0" index="0" allow="pedestrian bicycle" speed="2.93" length="3.06" width="2.00" shape="264.82,394.42 263.96,394.05 263.60,393.58 263.76,393.02 264.43,392.36"/>
    </edge>
    <edge id=":1116178817_3" function="internal">
        <lane id=":1116178817_3_0" index="0" allow="pedestrian bicycle" speed="5.67" length="12.07" width="2.00" shape="264.83,385.18 262.07,389.69 261.08,392.39 261.87,393.28 264.43,392.36"/>
    </edge>
    <edge id=":1116178817_4" function="internal">
        <lane id=":1116178817_4_0" index="0" disallow="tram rail_urban rail rail_electric rail_fast ship container cable_car subway aircraft wheelchair scooter drone" speed="13.89" length="13.87" shape="264.83,385.18 263.15,388.03 262.15,390.77 261.61,394.01 261.32,398.36"/>
    </edge>
    <edge id=":1116178817_5" function="internal">
        <lane id=":1116178817_5_0" index="0" allow="pedestrian bicycle" speed="9.72" length="14.62" width="2.00" shape="264.83,385.18 261.59,389.74 258.88,393.02 256.69,395.02 255.04,395.74"/>
    </edge>
    <edge id=":1116178817_6" function="internal">
        <lane id=":1116178817_6_0" index="0" allow="pedestrian bicycle" speed="6.43" length="11.74" width="2.00" shape="259.40,383.93 259.91,388.51 260.91,391.45 262.42,392.73 264.43,392.36"/>
    </edge>
    <edge id=":1116178817_7" function="internal">
        <lane id=":1116178817_7_0" index="0" disallow="tram rail_urban rail rail_electric rail_fast ship container cable_car subway aircraft wheelchair scooter drone" speed="13.89" length="14.36" shape="259.40,383.93 259.35,387.26 258.97,390.26 258.49,393.67 258.12,398.22"/>
    </edge>
    <edge id=":1116178817_8" function="internal">
        <lane id=":1116178817_8_0" index="0" allow="pedestrian bicycle" speed="7.92" length="6.14" width="2.00" shape="259.40,383.93 259.33,388.98 259.11,390.05"/>
    </edge>
    <edge id=":1116178817_12" function="internal">
        <lane id=":1116178817_12_0" index="0" allow="pedestrian bicycle" speed="7.92" length="7.59" width="2.00" shape="259.11,390.05 258.58,392.64 257.15,394.89 255.04,395.74"/>
    </edge>
    <edge id=":1116178817_9" function="internal">
        <lane id=":1116178817_9_0" index="0" allow="pedestrian bicycle" speed="5.56" length="9.78" width="2.00" shape="254.91,393.75 257.83,393.72 259.88,393.78 261.83,393.48 264.43,392.36"/>
    </edge>
    <edge id=":1116178817_10" function="internal">
        <lane id=":1116178817_10_0" index="0" allow="pedestrian bicycle" speed="5.25" length="6.39" width="2.00" shape="254.91,393.75 256.40,393.95 257.43,394.76 258.00,396.18 258.12,398.22"/>
    </edge>
    <edge id=":1116178817_11" function="internal">
        <lane id=":1116178817_11_0" index="0" allow="pedestrian bicycle" speed="2.89" length="2.92" width="2.00" shape="254.91,393.75 255.69,394.20 255.97,394.68 255.75,395.20 255.04,395.74"/>
    </edge>
    <edge id=":1116178823_0" function="internal">
        <lane id=":1116178823_0_0" index="0" disallow="tram rail_urban rail rail_electric rail_fast ship container cable_car subway aircraft wheelchair scooter drone" speed="13.89" length="8.88" shape="254.88,446.43 253.89,448.93 253.11,450.59 252.24,452.22 250.99,454.60"/>
        <lane id=":1116178823_0_1" index="1" disallow="tram rail_urban rail rail_electric rail_fast ship container cable_car subway aircraft wheelchair scooter drone" speed="13.89" length="8.88" shape="251.88,445.31 250.93,447.71 250.18,449.31 249.34,450.87 248.14,453.15"/>
    </edge>
    <edge id=":1116178823_2" function="internal">
        <lane id=":1116178823_2_0" index="0" disallow="tram rail_urban rail rail_electric rail_fast ship container cable_car subway aircraft wheelchair scooter drone" speed="8.10" length="8.11" shape="251.88,445.31 251.07,446.63 249.69,447.76 247.74,448.69 245.23,449.42"/>
    </edge>
    <edge id=":1116178830_0" function="internal">
        <lane id=":1116178830_0_0" index="0" disallow="tram rail_urban rail rail_electric rail_fast ship container cable_car subway aircraft wheelchair scooter drone" speed="13.89" length="8.07" shape="247.01,493.78 247.29,496.18 247.83,497.78 248.34,499.39 248.49,501.78"/>
        <lane id=":1116178830_0_1" index="1" disallow="tram rail_urban rail rail_electric rail_fast ship container cable_car subway aircraft wheelchair scooter drone" speed="13.89" length="8.07" shape="247.01,493.78 246.79,496.14 246.23,497.72 245.64,499.29 245.30,501.65"/>
        <lane id=":1116178830_0_2" index="2" disallow="tram rail_urban rail rail_electric rail_fast ship container cable_car subway aircraft wheelchair scooter drone" speed="13.89" length="8.07" shape="243.81,493.83 243.59,496.14 243.03,497.67 242.44,499.21 242.10,501.52"/>
    </edge>
    <edge id=":1116178875_0" function="internal">
        <lane id=":1116178875_0_0" index="0" allow="pedestrian delivery bicycle" speed="5.83" length="5.52" shape="216.53,411.57 218.08,410.99 219.20,410.20 219.89,409.19 220.14,407.95"/>
    </edge>
    <edge id=":1116178875_1" function="internal">
        <lane id=":1116178875_1_0" index="0" disallow="tram rail_urban rail rail_electric rail_fast ship container cable_car subway aircraft wheelchair scooter drone" speed="13.89" length="6.36" shape="219.92,414.29 220.14,407.95"/>
        <lane id=":1116178875_1_1" index="1" disallow="tram rail_urban rail rail_electric rail_fast ship container cable_car subway aircraft wheelchair scooter drone" speed="13.89" length="6.36" shape="223.12,414.41 223.34,408.04"/>
    </edge>
    <edge id=":11216928285_0" function="internal">
        <lane id=":11216928285_0_0" index="0" disallow="pedestrian bicycle tram rail_urban rail rail_electric rail_fast ship container cable_car subway aircraft wheelchair scooter drone" speed="22.22" length="3.65" shape="1033.22,554.72 1034.20,558.24"/>
    </edge>
    <edge id=":11216928309_0" function="internal">
        <lane id=":11216928309_0_0" index="0" allow="pedestrian delivery bicycle" speed="5.07" length="4.99" shape="632.00,492.71 630.67,492.85 629.69,493.40 629.06,494.35 628.79,495.71"/>
    </edge>
    <edge id=":11216928309_1" function="internal">
        <lane id=":11216928309_1_0" index="0" allow="pedestrian delivery bicycle" speed="3.65" length="4.67" shape="632.00,492.71 630.84,491.86 630.47,491.05 630.90,490.26 632.14,489.52"/>
    </edge>
    <edge id=":11216928309_2" function="internal">
        <lane id=":11216928309_2_0" index="0" allow="pedestrian delivery bicycle" speed="5.11" length="5.08" shape="629.01,486.31 629.18,487.66 629.76,488.65 630.74,489.27 632.14,489.52"/>
    </edge>
    <edge id=":11216928309_3" function="internal">
        <lane id=":11216928309_3_0" index="0" disallow="tram rail_urban rail rail_electric rail_fast ship container cable_car subway aircraft wheelchair scooter drone" speed="13.89" length="9.40" shape="629.01,486.31 628.79,495.71"/>
        <lane id=":11216928309_3_1" index="1" disallow="tram rail_urban rail rail_electric rail_fast ship container cable_car subway aircraft wheelchair scooter drone" speed="13.89" length="9.40" shape="625.81,486.24 625.59,495.64"/>
    </edge>
    <edge id=":11216928310_0" function="internal">
        <lane id=":11216928310_0_0" index="0" allow="pedestrian delivery bicycle" speed="3.65" length="4.67" shape="639.29,489.82 640.45,490.67 640.82,491.48 640.39,492.27 639.15,493.01"/>
    </edge>
    <edge id=":11216928314_0" function="internal">
        <lane id=":11216928314_0_0" index="0" allow="pedestrian delivery bicycle" speed="3.65" length="4.67" shape="638.97,434.12 640.19,434.89 640.61,435.68 640.22,436.49 639.04,437.32"/>
    </edge>
    <edge id=":11274936014_0" function="internal">
        <lane id=":11274936014_0_0" index="0" allow="pedestrian delivery bicycle" speed="5.56" length="5.48" shape="750.87,36.24 745.44,35.47"/>
    </edge>
    <edge id=":11274936014_1" function="internal">
        <lane id=":11274936014_1_0" index="0" allow="pedestrian delivery bicycle" speed="3.65" length="1.44" shape="750.87,36.24 749.82,35.25"/>
    </edge>
    <edge id=":11274936014_4" function="internal">
        <lane id=":11274936014_4_0" index="0" allow="pedestrian delivery bicycle" speed="3.65" length="3.23" shape="749.82,35.25 749.56,34.40 750.08,33.68 751.40,33.09"/>
    </edge>
    <edge id=":11274936014_2" function="internal">
        <lane id=":11274936014_2_0" index="0" allow="pedestrian delivery bicycle" speed="5.56" length="5.64" shape="745.82,32.29 751.40,33.09"/>
    </edge>
    <edge id=":11274936014_3" function="internal">
        <lane id=":11274936014_3_0" index="0" allow="pedestrian delivery bicycle" speed="3.65" length="1.44" shape="745.82,32.29 746.92,33.23"/>
    </edge>
    <edge id=":11274936014_5" function="internal">
        <lane id=":11274936014_5_0" index="0" allow="pedestrian delivery bicycle" speed="3.65" length="3.23" shape="746.92,33.23 747.22,34.07 746.73,34.81 745.44,35.47"/>
    </edge>
    <edge id=":11380678306_0" function="internal">
        <lane id=":11380678306_0_0" index="0" allow="pedestrian delivery bicycle" speed="5.56" length="5.00" shape="963.64,119.02 958.64,118.84"/>
    </edge>
    <edge id=":11380678306_1" function="internal">
        <lane id=":11380678306_1_0" index="0" allow="pedestrian delivery bicycle" speed="3.65" length="1.44" shape="963.64,119.02 962.47,118.17"/>
    </edge>
    <edge id=":11380678306_4" function="internal">
        <lane id=":11380678306_4_0" index="0" allow="pedestrian delivery bicycle" speed="3.65" length="3.23" shape="962.47,118.17 962.10,117.36 962.52,116.58 963.75,115.82"/>
    </edge>
    <edge id=":11380678306_2" function="internal">
        <lane id=":11380678306_2_0" index="0" allow="pedestrian delivery bicycle" speed="5.56" length="5.00" shape="958.76,115.64 963.75,115.82"/>
    </edge>
    <edge id=":11380678306_3" function="internal">
        <lane id=":11380678306_3_0" index="0" allow="pedestrian delivery bicycle" speed="3.65" length="1.44" shape="958.76,115.64 959.93,116.48"/>
    </edge>
    <edge id=":11380678306_5" function="internal">
        <lane id=":11380678306_5_0" index="0" allow="pedestrian delivery bicycle" speed="3.65" length="3.23" shape="959.93,116.48 960.30,117.30 959.87,118.08 958.64,118.84"/>
    </edge>
    <edge id=":11380678359_0" function="internal">
        <lane id=":11380678359_0_0" index="0" allow="pedestrian delivery bicycle" speed="5.56" length="6.63" shape="144.42,313.51 144.31,320.14"/>
    </edge>
    <edge id=":11380678359_1" function="internal">
        <lane id=":11380678359_1_0" index="0" allow="pedestrian delivery bicycle" speed="3.65" length="1.44" shape="144.42,313.51 143.60,314.70"/>
    </edge>
    <edge id=":11380678359_4" function="internal">
        <lane id=":11380678359_4_0" index="0" allow="pedestrian delivery bicycle" speed="3.65" length="3.23" shape="143.60,314.70 142.79,315.08 142.00,314.67 141.22,313.45"/>
    </edge>
    <edge id=":11380678359_2" function="internal">
        <lane id=":11380678359_2_0" index="0" allow="pedestrian delivery bicycle" speed="5.56" length="6.64" shape="141.11,320.09 141.22,313.45"/>
    </edge>
    <edge id=":11380678359_3" function="internal">
        <lane id=":11380678359_3_0" index="0" allow="pedestrian delivery bicycle" speed="3.65" length="1.44" shape="141.11,320.09 141.93,318.91"/>
    </edge>
    <edge id=":11380678359_5" function="internal">
        <lane id=":11380678359_5_0" index="0" allow="pedestrian delivery bicycle" speed="3.65" length="3.23" shape="141.93,318.91 142.73,318.52 143.53,318.93 144.31,320.14"/>
    </edge>
    <edge id=":11380678367_0" function="internal">
        <lane id=":11380678367_0_0" index="0" allow="pedestrian delivery bicycle" speed="5.56" length="5.25" shape="401.91,142.67 396.66,142.71"/>
    </edge>
    <edge id=":11380678367_1" function="internal">
        <lane id=":11380678367_1_0" index="0" allow="pedestrian delivery bicycle" speed="3.65" length="1.44" shape="401.91,142.67 400.71,141.88"/>
    </edge>
    <edge id=":11380678367_4" function="internal">
        <lane id=":11380678367_4_0" index="0" allow="pedestrian delivery bicycle" speed="3.65" length="3.23" shape="400.71,141.88 400.30,141.08 400.70,140.28 401.89,139.47"/>
    </edge>
    <edge id=":11380678367_2" function="internal">
        <lane id=":11380678367_2_0" index="0" allow="pedestrian delivery bicycle" speed="5.56" length="5.25" shape="396.64,139.51 401.89,139.47"/>
    </edge>
    <edge id=":11380678367_3" function="internal">
        <lane id=":11380678367_3_0" index="0" allow="pedestrian delivery bicycle" speed="3.65" length="1.44" shape="396.64,139.51 397.85,140.30"/>
    </edge>
    <edge id=":11380678367_5" function="internal">
        <lane id=":11380678367_5_0" index="0" allow="pedestrian delivery bicycle" speed="3.65" length="3.23" shape="397.85,140.30 398.25,141.10 397.86,141.90 396.66,142.71"/>
    </edge>
    <edge id=":11393244698_0" function="internal">
        <lane id=":11393244698_0_0" index="0" disallow="tram rail_urban rail rail_electric rail_fast ship container cable_car subway aircraft wheelchair scooter drone" speed="3.65" length="4.67" shape="9.97,617.72 9.07,618.84 8.23,619.17 7.47,618.70 6.78,617.44"/>
    </edge>
    <edge id=":11393244705_0" function="internal">
        <lane id=":11393244705_0_0" index="0" disallow="tram rail_urban rail rail_electric rail_fast ship container cable_car subway aircraft wheelchair scooter drone" speed="3.65" length="4.67" shape="596.26,623.76 595.08,622.92 594.71,622.11 595.13,621.32 596.36,620.56"/>
    </edge>
    <edge id=":11393244706_0" function="internal">
        <lane id=":11393244706_0_0" index="0" disallow="tram rail_urban rail rail_electric rail_fast ship container cable_car subway aircraft wheelchair scooter drone" speed="3.65" length="4.67" shape="554.86,618.45 556.02,619.30 556.38,620.12 555.94,620.90 554.70,621.64"/>
    </edge>
    <edge id=":11393244766_0" function="internal">
        <lane id=":11393244766_0_0" index="0" disallow="tram rail_urban rail rail_electric rail_fast ship container cable_car subway aircraft wheelchair scooter drone" speed="3.65" length="4.67" shape="213.12,622.61 212.23,623.75 211.40,624.08 210.63,623.62 209.93,622.37"/>
    </edge>
    <edge id=":11393244774_0" function="internal">
        <lane id=":11393244774_0_0" index="0" disallow="tram rail_urban rail rail_electric rail_fast ship container cable_car subway aircraft wheelchair scooter drone" speed="3.65" length="4.67" shape="413.58,626.53 412.69,627.67 411.86,628.00 411.10,627.54 410.39,626.29"/>
    </edge>
    <edge id=":11393244783_0" function="internal">
        <lane id=":11393244783_0_0" index="0" allow="pedestrian bicycle" speed="2.89" length="2.92" width="2.00" shape="806.63,637.15 805.74,637.25 805.23,637.03 805.10,636.48 805.35,635.62"/>
    </edge>
    <edge id=":11399245803_0" function="internal">
        <lane id=":11399245803_0_0" index="0" disallow="tram rail_urban rail rail_electric rail_fast ship container cable_car subway aircraft wheelchair scooter drone" speed="3.65" length="4.67" shape="815.16,639.18 814.28,640.32 813.45,640.66 812.68,640.21 811.97,638.95"/>
    </edge>
    <edge id=":11870007586_0" function="internal">
        <lane id=":11870007586_0_0" index="0" disallow="tram rail_urban rail rail_electric rail_fast ship container cable_car subway aircraft wheelchair scooter drone" speed="13.89" length="4.96" shape="10.41,612.57 9.98,617.52"/>
    </edge>
    <edge id=":11870007586_1" function="internal">
        <lane id=":11870007586_1_0" index="0" disallow="tram rail_urban rail rail_electric rail_fast ship container cable_car subway aircraft wheelchair scooter drone" speed="13.89" length="4.96" shape="6.80,617.24 7.22,612.30"/>
    </edge>
    <edge id=":11872208925_0" function="internal">
        <lane id=":11872208925_0_0" index="0" allow="pedestrian delivery bicycle" speed="3.65" length="4.67" shape="1099.05,489.55 1098.24,490.74 1097.44,491.14 1096.64,490.74 1095.85,489.53"/>
    </edge>
    <edge id=":11872208930_0" function="internal">
        <lane id=":11872208930_0_0" index="0" allow="pedestrian delivery bicycle" speed="3.65" length="4.67" shape="1103.71,455.29 1104.57,454.13 1105.39,453.77 1106.17,454.21 1106.91,455.44"/>
    </edge>
    <edge id=":12099898879_0" function="internal">
        <lane id=":12099898879_0_0" index="0" allow="pedestrian bicycle" speed="2.89" length="2.92" width="2.00" shape="823.00,635.81 823.27,636.67 823.14,637.21 822.63,637.44 821.74,637.35"/>
    </edge>
    <edge id=":12099898899_0" function="internal">
        <lane id=":12099898899_0_0" index="0" allow="pedestrian delivery bicycle" speed="3.65" length="4.67" shape="896.19,641.29 895.80,642.68 895.17,643.31 894.28,643.17 893.15,642.28"/>
    </edge>
    <edge id=":12099943701_0" function="internal">
        <lane id=":12099943701_0_0" index="0" allow="pedestrian delivery bicycle" speed="7.17" length="7.84" shape="891.89,638.38 890.93,635.98 889.81,634.23 888.54,633.13 887.11,632.69"/>
    </edge>
    <edge id=":12099943701_1" function="internal">
        <lane id=":12099943701_1_0" index="0" allow="pedestrian delivery bicycle" speed="6.75" length="12.74" shape="891.89,638.38 891.18,634.59 891.91,631.99 894.06,630.56 897.64,630.30"/>
    </edge>
    <edge id=":12099943701_2" function="internal">
        <lane id=":12099943701_2_0" index="0" allow="pedestrian delivery bicycle" speed="3.66" length="4.70" shape="891.89,638.38 892.12,636.95 892.69,636.25 893.59,636.28 894.82,637.05"/>
    </edge>
    <edge id=":12099943701_3" function="internal">
        <lane id=":12099943701_3_0" index="0" allow="pedestrian delivery bicycle" speed="4.76" length="5.64" shape="897.39,633.49 895.80,633.60 894.84,634.23 894.51,635.38 894.82,637.05"/>
    </edge>
    <edge id=":12099943701_4" function="internal">