<?xml version="1.0" encoding="UTF-8"?>

<!-- generated on 2024-10-30 19:31:05 by Eclipse SUMO netconvert Version 1.20.0
<configuration xmlns:xsi="http://www.w3.org/2001/XMLSchema-instance" xsi:noNamespaceSchemaLocation="http://sumo.dlr.de/xsd/netconvertConfiguration.xsd">

    <input>
        <type-files value="${SUMO_HOME}/data/typemap/osmNetconvert.typ.xml"/>
        <osm-files value="osm_bbox.osm.xml.gz"/>
    </input>

    <output>
        <output-file value="osm.net.xml.gz"/>
        <output.street-names value="true"/>
        <output.original-names value="true"/>
    </output>

    <projection>
        <proj.utm value="true"/>
    </projection>

    <processing>
        <geometry.remove value="true"/>
        <roundabouts.guess value="true"/>
    </processing>

    <tls_building>
        <tls.discard-simple value="true"/>
        <tls.join value="true"/>
        <tls.guess-signals value="true"/>
        <tls.default-type value="actuated"/>
    </tls_building>

    <ramp_guessing>
        <ramps.guess value="true"/>
    </ramp_guessing>

    <junctions>
        <junctions.join value="true"/>
        <junctions.corner-detail value="5"/>
    </junctions>

</configuration>
-->

<net version="1.20" junctionCornerDetail="5" limitTurnSpeed="5.50" xmlns:xsi="http://www.w3.org/2001/XMLSchema-instance" xsi:noNamespaceSchemaLocation="http://sumo.dlr.de/xsd/net_file.xsd">

    <location netOffset="-574865.53,-2861136.10" convBoundary="0.00,0.00,407.39,253.06" origBoundary="-80.252777,25.866701,-80.248710,25.868987" projParameter="+proj=utm +zone=17 +ellps=WGS84 +datum=WGS84 +units=m +no_defs"/>

    <type id="highway.primary" priority="12" numLanes="2" speed="27.78" disallow="tram rail_urban rail rail_electric rail_fast ship container cable_car subway aircraft wheelchair scooter drone" oneway="0"/>
    <type id="highway.residential" priority="3" numLanes="1" speed="13.89" disallow="tram rail_urban rail rail_electric rail_fast ship container cable_car subway aircraft wheelchair scooter drone" oneway="0"/>
    <type id="highway.secondary" priority="11" numLanes="1" speed="27.78" disallow="tram rail_urban rail rail_electric rail_fast ship container cable_car subway aircraft wheelchair scooter drone" oneway="0"/>
    <type id="highway.service" priority="1" numLanes="1" speed="5.56" allow="pedestrian delivery bicycle" oneway="0"/>

    <edge id=":10687885627_0" function="internal">
        <lane id=":10687885627_0_0" index="0" disallow="tram rail_urban rail rail_electric rail_fast ship container cable_car subway aircraft wheelchair scooter drone" speed="3.65" length="4.67" shape="202.93,-0.10 203.81,-1.25 204.63,-1.60 205.40,-1.15 206.13,0.10"/>
    </edge>
    <edge id=":10687885628_0" function="internal">
        <lane id=":10687885628_0_0" index="0" disallow="tram rail_urban rail rail_electric rail_fast ship container cable_car subway aircraft wheelchair scooter drone" speed="27.78" length="8.54" shape="207.50,30.02 207.85,32.51 208.85,34.11 209.86,35.72 210.21,38.20"/>
        <lane id=":10687885628_0_1" index="1" disallow="tram rail_urban rail rail_electric rail_fast ship container cable_car subway aircraft wheelchair scooter drone" speed="27.78" length="8.54" shape="204.31,29.83 204.66,32.32 205.66,33.92 206.66,35.52 207.01,38.01"/>
        <lane id=":10687885628_0_2" index="2" disallow="tram rail_urban rail rail_electric rail_fast ship container cable_car subway aircraft wheelchair scooter drone" speed="27.78" length="8.54" shape="204.31,29.83 203.82,37.81"/>
    </edge>
    <edge id=":10687885628_3" function="internal">
        <lane id=":10687885628_3_0" index="0" disallow="tram rail_urban rail rail_electric rail_fast ship container cable_car subway aircraft wheelchair scooter drone" speed="27.78" length="8.00" shape="197.43,37.42 197.92,29.44"/>
        <lane id=":10687885628_3_1" index="1" disallow="tram rail_urban rail rail_electric rail_fast ship container cable_car subway aircraft wheelchair scooter drone" speed="27.78" length="8.00" shape="200.62,37.62 201.11,29.63"/>
    </edge>
    <edge id=":1208276024_0" function="internal">
        <lane id=":1208276024_0_0" index="0" disallow="tram rail_urban rail rail_electric rail_fast ship container cable_car subway aircraft wheelchair scooter drone" speed="6.45" length="9.03" shape="304.10,111.67 304.27,114.14 305.20,115.95 306.88,117.09 309.32,117.56"/>
    </edge>
    <edge id=":1208276024_1" function="internal">
        <lane id=":1208276024_1_0" index="0" disallow="tram rail_urban rail rail_electric rail_fast ship container cable_car subway aircraft wheelchair scooter drone" speed="3.65" length="4.67" shape="304.10,111.67 303.21,112.80 302.38,113.14 301.62,112.69 300.91,111.43"/>
    </edge>
    <edge id=":1208276024_2" function="internal">
        <lane id=":1208276024_2_0" index="0" disallow="tram rail_urban rail rail_electric rail_fast ship container cable_car subway aircraft wheelchair scooter drone" speed="6.59" length="9.15" shape="294.93,116.84 297.38,116.61 299.20,115.63 300.38,113.91 300.91,111.43"/>
    </edge>
    <edge id=":1208276024_3" function="internal">
        <lane id=":1208276024_3_0" index="0" disallow="tram rail_urban rail rail_electric rail_fast ship container cable_car subway aircraft wheelchair scooter drone" speed="17.88" length="14.43" shape="294.93,116.84 309.32,117.56"/>
        <lane id=":1208276024_3_1" index="1" disallow="tram rail_urban rail rail_electric rail_fast ship container cable_car subway aircraft wheelchair scooter drone" speed="17.88" length="14.43" shape="294.76,120.03 309.17,120.75"/>
        <lane id=":1208276024_3_2" index="2" disallow="tram rail_urban rail rail_electric rail_fast ship container cable_car subway aircraft wheelchair scooter drone" speed="17.88" length="14.43" shape="294.59,123.23 309.02,123.95"/>
    </edge>
    <edge id=":12094909092_0" function="internal">
        <lane id=":12094909092_0_0" index="0" disallow="tram rail_urban rail rail_electric rail_fast ship container cable_car subway aircraft wheelchair scooter drone" speed="17.88" length="8.21" shape="277.07,137.77 274.67,137.90 273.04,138.37 271.41,138.85 269.00,138.98"/>
        <lane id=":12094909092_0_1" index="1" disallow="tram rail_urban rail rail_electric rail_fast ship container cable_car subway aircraft wheelchair scooter drone" speed="17.88" length="8.21" shape="277.23,134.57 274.82,134.71 273.19,135.18 271.57,135.65 269.16,135.78"/>
        <lane id=":12094909092_0_2" index="2" disallow="tram rail_urban rail rail_electric rail_fast ship container cable_car subway aircraft wheelchair scooter drone" speed="17.88" length="8.21" shape="277.38,131.38 274.98,131.51 273.35,131.98 271.72,132.45 269.31,132.59"/>
        <lane id=":12094909092_0_3" index="3" disallow="tram rail_urban rail rail_electric rail_fast ship container cable_car subway aircraft wheelchair scooter drone" speed="17.88" length="8.21" shape="277.38,131.38 275.00,131.01 273.43,130.38 271.85,129.76 269.47,129.39"/>
    </edge>
    <edge id=":12121844284_0" function="internal">
        <lane id=":12121844284_0_0" index="0" disallow="tram rail_urban rail rail_electric rail_fast ship container cable_car subway aircraft wheelchair scooter drone" speed="17.88" length="8.21" shape="80.76,105.51 83.17,105.39 84.80,104.92 86.43,104.46 88.83,104.33"/>
        <lane id=":12121844284_0_1" index="1" disallow="tram rail_urban rail rail_electric rail_fast ship container cable_car subway aircraft wheelchair scooter drone" speed="17.88" length="8.21" shape="80.59,108.70 83.00,108.58 84.63,108.12 86.26,107.65 88.66,107.53"/>
        <lane id=":12121844284_0_2" index="2" disallow="tram rail_urban rail rail_electric rail_fast ship container cable_car subway aircraft wheelchair scooter drone" speed="17.88" length="8.21" shape="80.42,111.90 82.83,111.78 84.46,111.31 86.09,110.85 88.49,110.72"/>
        <lane id=":12121844284_0_3" index="3" disallow="tram rail_urban rail rail_electric rail_fast ship container cable_car subway aircraft wheelchair scooter drone" speed="17.88" length="8.21" shape="80.42,111.90 82.80,112.28 84.37,112.91 85.94,113.54 88.32,113.92"/>
    </edge>
    <edge id=":2014554007_0" function="internal">
        <lane id=":2014554007_0_0" index="0" disallow="tram rail_urban rail rail_electric rail_fast ship container cable_car subway aircraft wheelchair scooter drone" speed="7.65" length="12.80" shape="32.46,112.44 33.09,108.33 34.44,105.44 36.49,103.77 39.26,103.32"/>
        <lane id=":2014554007_0_1" index="1" disallow="tram rail_urban rail rail_electric rail_fast ship container cable_car subway aircraft wheelchair scooter drone" speed="6.87" length="10.12" shape="32.46,112.44 33.01,109.73 34.30,107.83 36.33,106.76 39.09,106.52"/>
        <lane id=":2014554007_0_2" index="2" disallow="tram rail_urban rail rail_electric rail_fast ship container cable_car subway aircraft wheelchair scooter drone" speed="6.09" length="7.74" shape="32.46,112.44 32.93,111.12 34.16,110.23 36.16,109.76 38.92,109.71"/>
    </edge>
    <edge id=":2014554007_3" function="internal">
        <lane id=":2014554007_3_0" index="0" disallow="tram rail_urban rail rail_electric rail_fast ship container cable_car subway aircraft wheelchair scooter drone" speed="3.65" length="4.67" shape="32.46,112.44 33.33,111.29 34.15,110.94 34.92,111.39 35.65,112.63"/>
    </edge>
    <edge id=":2014554020_0" function="internal">
        <lane id=":2014554020_0_0" index="0" disallow="tram rail_urban rail rail_electric rail_fast ship container cable_car subway aircraft wheelchair scooter drone" speed="7.63" length="12.95" shape="405.77,135.32 405.20,139.49 403.88,142.41 401.81,144.09 398.98,144.54"/>
        <lane id=":2014554020_0_1" index="1" disallow="tram rail_urban rail rail_electric rail_fast ship container cable_car subway aircraft wheelchair scooter drone" speed="6.85" length="10.24" shape="405.77,135.32 405.26,138.09 403.99,140.01 401.95,141.10 399.15,141.34"/>
        <lane id=":2014554020_0_2" index="2" disallow="tram rail_urban rail rail_electric rail_fast ship container cable_car subway aircraft wheelchair scooter drone" speed="6.07" length="7.80" shape="405.77,135.32 405.32,136.69 404.10,137.62 402.10,138.10 399.33,138.15"/>
    </edge>
    <edge id=":2014554020_3" function="internal">
        <lane id=":2014554020_3_0" index="0" disallow="tram rail_urban rail rail_electric rail_fast ship container cable_car subway aircraft wheelchair scooter drone" speed="3.65" length="4.67" shape="405.77,135.32 404.92,136.49 404.11,136.86 403.33,136.43 402.57,135.20"/>
    </edge>
    <edge id=":5451362147_0" function="internal">
        <lane id=":5451362147_0_0" index="0" allow="pedestrian delivery bicycle" speed="5.05" length="5.01" shape="153.77,143.53 152.40,143.68 151.41,144.24 150.80,145.19 150.56,146.54"/>
    </edge>
    <edge id=":5451362147_1" function="internal">
        <lane id=":5451362147_1_0" index="0" allow="pedestrian delivery bicycle" speed="5.56" length="10.17" shape="153.77,143.53 151.02,143.06 149.08,141.82 147.96,139.82 147.65,137.05"/>
    </edge>
    <edge id=":5451362147_2" function="internal">
        <lane id=":5451362147_2_0" index="0" allow="pedestrian delivery bicycle" speed="3.65" length="4.67" shape="153.77,143.53 152.59,142.70 152.21,141.89 152.63,141.10 153.86,140.33"/>
    </edge>
    <edge id=":5451362147_3" function="internal">
        <lane id=":5451362147_3_0" index="0" allow="pedestrian delivery bicycle" speed="5.04" length="5.00" shape="150.85,137.14 151.00,138.50 151.55,139.49 152.50,140.10 153.86,140.33"/>
    </edge>
    <edge id=":5451362147_4" function="internal">
        <lane id=":5451362147_4_0" index="0" allow="pedestrian delivery bicycle" speed="5.56" length="9.40" shape="150.85,137.14 150.56,146.54"/>
    </edge>
    <edge id=":5451362147_5" function="internal">
        <lane id=":5451362147_5_0" index="0" allow="pedestrian delivery bicycle" speed="3.65" length="4.67" shape="150.85,137.14 150.01,138.32 149.20,138.69 148.41,138.27 147.65,137.05"/>
    </edge>
    <edge id=":5451362147_6" function="internal">
        <lane id=":5451362147_6_0" index="0" allow="pedestrian delivery bicycle" speed="5.56" length="9.40" shape="147.36,146.44 147.65,137.05"/>
    </edge>
    <edge id=":5451362147_7" function="internal">
        <lane id=":5451362147_7_0" index="0" allow="pedestrian delivery bicycle" speed="5.56" length="10.16" shape="147.36,146.44 147.84,143.70 149.08,141.77 151.09,140.65 153.86,140.33"/>
    </edge>
    <edge id=":5451362147_8" function="internal">
        <lane id=":5451362147_8_0" index="0" allow="pedestrian delivery bicycle" speed="3.65" length="4.67" shape="147.36,146.44 148.20,145.26 149.01,144.89 149.80,145.31 150.56,146.54"/>
    </edge>
    <edge id=":5451362151_0" function="internal">
        <lane id=":5451362151_0_0" index="0" allow="pedestrian delivery bicycle" speed="5.56" length="9.38" shape="186.61,158.74 177.23,158.32"/>
    </edge>
    <edge id=":5451362151_1" function="internal">
        <lane id=":5451362151_1_0" index="0" allow="pedestrian delivery bicycle" speed="5.56" length="10.15" shape="186.61,158.74 183.92,158.23 182.02,156.95 180.91,154.92 180.58,152.13"/>
    </edge>
    <edge id=":5451362151_2" function="internal">
        <lane id=":5451362151_2_0" index="0" allow="pedestrian delivery bicycle" speed="3.65" length="4.67" shape="186.61,158.74 185.45,157.88 185.09,157.06 185.53,156.28 186.77,155.55"/>
    </edge>
    <edge id=":5451362151_3" function="internal">
        <lane id=":5451362151_3_0" index="0" allow="pedestrian delivery bicycle" speed="5.11" length="5.09" shape="183.78,152.20 183.94,153.62 184.49,154.64 185.44,155.29 186.77,155.55"/>
    </edge>
    <edge id=":5451362151_4" function="internal">
        <lane id=":5451362151_4_0" index="0" allow="pedestrian delivery bicycle" speed="5.56" length="10.27" shape="183.78,152.20 183.32,154.99 182.07,156.94 180.04,158.05 177.23,158.32"/>
    </edge>
    <edge id=":5451362151_5" function="internal">
        <lane id=":5451362151_5_0" index="0" allow="pedestrian delivery bicycle" speed="3.65" length="4.67" shape="183.78,152.20 182.95,153.39 182.15,153.77 181.36,153.35 180.58,152.13"/>
    </edge>
    <edge id=":5451362151_6" function="internal">
        <lane id=":5451362151_6_0" index="0" allow="pedestrian delivery bicycle" speed="5.02" length="5.03" shape="177.38,155.13 178.75,154.99 179.75,154.45 180.36,153.49 180.58,152.13"/>
    </edge>
    <edge id=":5451362151_7" function="internal">
        <lane id=":5451362151_7_0" index="0" allow="pedestrian delivery bicycle" speed="5.56" length="9.40" shape="177.38,155.13 186.77,155.55"/>
    </edge>
    <edge id=":5451362151_8" function="internal">
        <lane id=":5451362151_8_0" index="0" allow="pedestrian delivery bicycle" speed="3.65" length="4.67" shape="177.38,155.13 178.54,155.98 178.90,156.80 178.47,157.58 177.23,158.32"/>
    </edge>
    <edge id=":5451362152_0" function="internal">
        <lane id=":5451362152_0_0" index="0" allow="pedestrian delivery bicycle" speed="5.04" length="4.99" shape="186.87,155.55 188.23,155.42 189.22,154.88 189.84,153.94 190.10,152.59"/>
    </edge>
    <edge id=":5451362152_1" function="internal">
        <lane id=":5451362152_1_0" index="0" allow="pedestrian delivery bicycle" speed="3.65" length="4.67" shape="186.87,155.55 188.03,156.41 188.39,157.23 187.95,158.01 186.71,158.75"/>
    </edge>
    <edge id=":5451362152_2" function="internal">
        <lane id=":5451362152_2_0" index="0" allow="pedestrian delivery bicycle" speed="5.04" length="5.00" shape="189.67,161.98 189.53,160.62 189.00,159.63 188.06,159.00 186.71,158.75"/>
    </edge>
    <edge id=":5451362152_3" function="internal">
        <lane id=":5451362152_3_0" index="0" disallow="tram rail_urban rail rail_electric rail_fast ship container cable_car subway aircraft wheelchair scooter drone" speed="27.78" length="9.40" shape="189.67,161.98 190.10,152.59"/>
        <lane id=":5451362152_3_1" index="1" disallow="tram rail_urban rail rail_electric rail_fast ship container cable_car subway aircraft wheelchair scooter drone" speed="27.78" length="9.40" shape="192.86,162.13 193.29,152.74"/>
    </edge>
    <edge id=":5451362154_0" function="internal">
        <lane id=":5451362154_0_0" index="0" allow="pedestrian delivery bicycle" speed="5.02" length="5.03" shape="154.15,131.73 152.77,131.85 151.77,132.39 151.16,133.34 150.92,134.70"/>
    </edge>
    <edge id=":5451362154_1" function="internal">
        <lane id=":5451362154_1_0" index="0" disallow="tram rail_urban rail rail_electric rail_fast ship container cable_car subway aircraft wheelchair scooter drone" speed="17.88" length="9.40" shape="154.15,131.73 144.76,131.23"/>
        <lane id=":5451362154_1_1" index="1" disallow="tram rail_urban rail rail_electric rail_fast ship container cable_car subway aircraft wheelchair scooter drone" speed="17.88" length="9.40" shape="154.31,128.53 144.93,128.04"/>
        <lane id=":5451362154_1_2" index="2" disallow="tram rail_urban rail rail_electric rail_fast ship container cable_car subway aircraft wheelchair scooter drone" speed="17.88" length="9.40" shape="154.48,125.34 145.10,124.84"/>
    </edge>
    <edge id=":5451362154_4" function="internal">
        <lane id=":5451362154_4_0" index="0" allow="pedestrian delivery bicycle" speed="5.11" length="5.09" shape="147.72,134.60 147.57,133.19 147.03,132.16 146.09,131.50 144.76,131.23"/>
    </edge>
    <edge id=":5451362154_5" function="internal">
        <lane id=":5451362154_5_0" index="0" allow="pedestrian delivery bicycle" speed="3.65" length="4.67" shape="147.72,134.60 148.56,133.43 149.37,133.05 150.16,133.47 150.92,134.70"/>
    </edge>
    <edge id=":99083240_0" function="internal">
        <lane id=":99083240_0_0" index="0" disallow="tram rail_urban rail rail_electric rail_fast ship container cable_car subway aircraft wheelchair scooter drone" speed="6.08" length="7.74" shape="404.29,74.81 406.36,75.23 407.81,76.22 408.62,77.76 408.80,79.88"/>
    </edge>
    <edge id=":99083240_1" function="internal">
        <lane id=":99083240_1_0" index="0" disallow="tram rail_urban rail rail_electric rail_fast ship container cable_car subway aircraft wheelchair scooter drone" speed="3.90" length="2.58" shape="405.61,79.69 405.55,78.99 405.28,78.47 404.79,78.14 404.10,78.00"/>
    </edge>
    <edge id=":99083241_0" function="internal">
        <lane id=":99083241_0_0" index="0" disallow="tram rail_urban rail rail_electric rail_fast ship container cable_car subway aircraft wheelchair scooter drone" speed="13.89" length="17.52" shape="406.64,117.35 405.79,134.85"/>
    </edge>
    <edge id=":99083241_1" function="internal">
        <lane id=":99083241_1_0" index="0" disallow="tram rail_urban rail rail_electric rail_fast ship container cable_car subway aircraft wheelchair scooter drone" speed="3.65" length="4.67" shape="406.64,117.35 405.78,118.50 404.95,118.86 404.18,118.41 403.45,117.17"/>
    </edge>
    <edge id=":99083241_2" function="internal">
        <lane id=":99083241_2_0" index="0" disallow="tram rail_urban rail rail_electric rail_fast ship container cable_car subway aircraft wheelchair scooter drone" speed="6.48" length="9.03" shape="397.52,122.39 399.99,122.21 401.81,121.28 402.96,119.60 403.45,117.17"/>
    </edge>
    <edge id=":99083241_3" function="internal">
        <lane id=":99083241_3_0" index="0" disallow="tram rail_urban rail rail_electric rail_fast ship container cable_car subway aircraft wheelchair scooter drone" speed="8.10" length="14.24" shape="397.30,125.58 401.14,126.39 403.84,128.20 405.39,131.02 405.79,134.85"/>
    </edge>
    <edge id=":99083241_4" function="internal">
        <lane id=":99083241_4_0" index="0" disallow="tram rail_urban rail rail_electric rail_fast ship container cable_car subway aircraft wheelchair scooter drone" speed="13.89" length="17.57" shape="402.59,134.72 403.45,117.17"/>
    </edge>
    <edge id=":99083241_5" function="internal">
        <lane id=":99083241_5_0" index="0" disallow="tram rail_urban rail rail_electric rail_fast ship container cable_car subway aircraft wheelchair scooter drone" speed="3.65" length="4.67" shape="402.59,134.72 403.44,133.55 404.26,133.18 405.04,133.62 405.79,134.85"/>
    </edge>
    <edge id=":99085628_0" function="internal">
        <lane id=":99085628_0_0" index="0" disallow="tram rail_urban rail rail_electric rail_fast ship container cable_car subway aircraft wheelchair scooter drone" speed="3.65" length="4.67" shape="-0.07,57.15 -1.23,56.30 -1.60,55.48 -1.16,54.70 0.07,53.95"/>
    </edge>
    <edge id=":99181963_0" function="internal">
        <lane id=":99181963_0_0" index="0" disallow="tram rail_urban rail rail_electric rail_fast ship container cable_car subway aircraft wheelchair scooter drone" speed="6.57" length="9.12" shape="312.56,72.70 310.10,72.92 308.29,73.88 307.11,75.59 306.58,78.06"/>
    </edge>
    <edge id=":99181963_1" function="internal">
        <lane id=":99181963_1_0" index="0" disallow="tram rail_urban rail rail_electric rail_fast ship container cable_car subway aircraft wheelchair scooter drone" speed="13.89" length="14.41" shape="312.56,72.70 298.18,71.90"/>
    </edge>
    <edge id=":99181963_2" function="internal">
        <lane id=":99181963_2_0" index="0" disallow="tram rail_urban rail rail_electric rail_fast ship container cable_car subway aircraft wheelchair scooter drone" speed="3.65" length="1.44" shape="312.56,72.70 311.41,71.84"/>
    </edge>
    <edge id=":99181963_9" function="internal">
        <lane id=":99181963_9_0" index="0" disallow="tram rail_urban rail rail_electric rail_fast ship container cable_car subway aircraft wheelchair scooter drone" speed="3.65" length="3.23" shape="311.41,71.84 311.06,71.01 311.50,70.24 312.75,69.51"/>
    </edge>
    <edge id=":99181963_3" function="internal">
        <lane id=":99181963_3_0" index="0" disallow="tram rail_urban rail rail_electric rail_fast ship container cable_car subway aircraft wheelchair scooter drone" speed="13.89" length="14.42" shape="298.35,68.71 312.75,69.51"/>
    </edge>
    <edge id=":99181963_4" function="internal">
        <lane id=":99181963_4_0" index="0" disallow="tram rail_urban rail rail_electric rail_fast ship container cable_car subway aircraft wheelchair scooter drone" speed="7.96" length="4.10" shape="298.35,68.71 302.20,69.47 302.34,69.57"/>
    </edge>
    <edge id=":99181963_5" function="internal">
        <lane id=":99181963_5_0" index="0" disallow="tram rail_urban rail rail_electric rail_fast ship container cable_car subway aircraft wheelchair scooter drone" speed="3.65" length="1.44" shape="298.35,68.71 299.50,69.57"/>
    </edge>
    <edge id=":99181963_10" function="internal">
        <lane id=":99181963_10_0" index="0" disallow="tram rail_urban rail rail_electric rail_fast ship container cable_car subway aircraft wheelchair scooter drone" speed="7.96" length="10.17" shape="302.34,69.57 304.85,71.28 306.31,74.14 306.58,78.06"/>
    </edge>
    <edge id=":99181963_11" function="internal">
        <lane id=":99181963_11_0" index="0" disallow="tram rail_urban rail rail_electric rail_fast ship container cable_car subway aircraft wheelchair scooter drone" speed="3.65" length="3.23" shape="299.50,69.57 299.86,70.39 299.42,71.17 298.18,71.90"/>
    </edge>
    <edge id=":99181963_6" function="internal">
        <lane id=":99181963_6_0" index="0" disallow="tram rail_urban rail rail_electric rail_fast ship container cable_car subway aircraft wheelchair scooter drone" speed="6.46" length="9.03" shape="303.39,77.82 303.22,75.35 302.29,73.53 300.61,72.39 298.18,71.90"/>
    </edge>
    <edge id=":99181963_7" function="internal">
        <lane id=":99181963_7_0" index="0" disallow="tram rail_urban rail rail_electric rail_fast ship container cable_car subway aircraft wheelchair scooter drone" speed="8.06" length="14.23" shape="303.39,77.82 304.22,74.00 306.05,71.34 308.90,69.84 312.75,69.51"/>
    </edge>
    <edge id=":99181963_8" function="internal">
        <lane id=":99181963_8_0" index="0" disallow="tram rail_urban rail rail_electric rail_fast ship container cable_car subway aircraft wheelchair scooter drone" speed="3.65" length="4.67" shape="303.39,77.82 304.27,76.68 305.10,76.34 305.87,76.80 306.58,78.06"/>
    </edge>
    <edge id=":99181966_0" function="internal">
        <lane id=":99181966_0_0" index="0" disallow="tram rail_urban rail rail_electric rail_fast ship container cable_car subway aircraft wheelchair scooter drone" speed="6.50" length="9.04" shape="214.07,67.42 211.60,67.64 209.80,68.60 208.66,70.29 208.18,72.72"/>
    </edge>
    <edge id=":99181966_1" function="internal">
        <lane id=":99181966_1_0" index="0" disallow="tram rail_urban rail rail_electric rail_fast ship container cable_car subway aircraft wheelchair scooter drone" speed="13.89" length="24.02" shape="214.07,67.42 190.09,66.18"/>
    </edge>
    <edge id=":99181966_2" function="internal">
        <lane id=":99181966_2_0" index="0" disallow="tram rail_urban rail rail_electric rail_fast ship container cable_car subway aircraft wheelchair scooter drone" speed="9.31" length="19.68" shape="214.07,67.42 207.45,66.51 202.80,64.60 200.11,61.67 199.40,57.74"/>
    </edge>
    <edge id=":99181966_3" function="internal">
        <lane id=":99181966_3_0" index="0" disallow="tram rail_urban rail rail_electric rail_fast ship container cable_car subway aircraft wheelchair scooter drone" speed="3.65" length="4.67" shape="214.07,67.42 212.92,66.56 212.56,65.74 213.00,64.96 214.24,64.23"/>
    </edge>
    <edge id=":99181966_4" function="internal">
        <lane id=":99181966_4_0" index="0" disallow="tram rail_urban rail rail_electric rail_fast ship container cable_car subway aircraft wheelchair scooter drone" speed="6.49" length="9.03" shape="208.98,58.33 209.18,60.80 210.13,62.60 211.81,63.75 214.24,64.23"/>
    </edge>
    <edge id=":99181966_5" function="internal">
        <lane id=":99181966_5_0" index="0" disallow="tram rail_urban rail rail_electric rail_fast ship container cable_car subway aircraft wheelchair scooter drone" speed="27.78" length="14.45" shape="208.98,58.33 208.18,72.72"/>
        <lane id=":99181966_5_1" index="1" disallow="tram rail_urban rail rail_electric rail_fast ship container cable_car subway aircraft wheelchair scooter drone" speed="27.78" length="14.45" shape="205.79,58.13 204.99,72.56"/>
        <lane id=":99181966_5_2" index="2" disallow="tram rail_urban rail rail_electric rail_fast ship container cable_car subway aircraft wheelchair scooter drone" speed="27.78" length="14.45" shape="202.59,57.94 201.79,72.41"/>
    </edge>
    <edge id=":99181966_8" function="internal">
        <lane id=":99181966_8_0" index="0" disallow="tram rail_urban rail rail_electric rail_fast ship container cable_car subway aircraft wheelchair scooter drone" speed="8.72" length="3.68" shape="202.59,57.94 201.68,61.50"/>
    </edge>
    <edge id=":99181966_9" function="internal">
        <lane id=":99181966_9_0" index="0" disallow="tram rail_urban rail rail_electric rail_fast ship container cable_car subway aircraft wheelchair scooter drone" speed="3.65" length="1.44" shape="202.59,57.94 201.72,59.09"/>
    </edge>
    <edge id=":99181966_19" function="internal">
        <lane id=":99181966_19_0" index="0" disallow="tram rail_urban rail rail_electric rail_fast ship container cable_car subway aircraft wheelchair scooter drone" speed="8.72" length="13.25" shape="201.68,61.50 201.61,61.77 199.20,64.42 195.36,65.89 190.09,66.18"/>
    </edge>
    <edge id=":99181966_20" function="internal">
        <lane id=":99181966_20_0" index="0" disallow="tram rail_urban rail rail_electric rail_fast ship container cable_car subway aircraft wheelchair scooter drone" speed="3.65" length="3.23" shape="201.72,59.09 200.90,59.44 200.12,58.99 199.40,57.74"/>
    </edge>
    <edge id=":99181966_10" function="internal">
        <lane id=":99181966_10_0" index="0" disallow="tram rail_urban rail rail_electric rail_fast ship container cable_car subway aircraft wheelchair scooter drone" speed="6.58" length="9.17" shape="190.25,62.98 192.72,62.75 194.54,61.76 195.70,60.03 196.20,57.55"/>
    </edge>
    <edge id=":99181966_11" function="internal">
        <lane id=":99181966_11_0" index="0" disallow="tram rail_urban rail rail_electric rail_fast ship container cable_car subway aircraft wheelchair scooter drone" speed="13.89" length="24.03" shape="190.25,62.98 214.24,64.23"/>
    </edge>
    <edge id=":99181966_12" function="internal">
        <lane id=":99181966_12_0" index="0" disallow="tram rail_urban rail rail_electric rail_fast ship container cable_car subway aircraft wheelchair scooter drone" speed="8.68" length="16.88" shape="190.25,62.98 195.46,63.79 199.13,65.64 201.24,68.51 201.79,72.41"/>
    </edge>
    <edge id=":99181966_13" function="internal">
        <lane id=":99181966_13_0" index="0" disallow="tram rail_urban rail rail_electric rail_fast ship container cable_car subway aircraft wheelchair scooter drone" speed="3.65" length="4.67" shape="190.25,62.98 191.41,63.84 191.77,64.66 191.33,65.44 190.09,66.18"/>
    </edge>
    <edge id=":99181966_14" function="internal">
        <lane id=":99181966_14_0" index="0" disallow="tram rail_urban rail rail_electric rail_fast ship container cable_car subway aircraft wheelchair scooter drone" speed="6.52" length="9.06" shape="195.40,72.09 195.17,69.61 194.21,67.79 192.52,66.65 190.09,66.18"/>
    </edge>
    <edge id=":99181966_15" function="internal">
        <lane id=":99181966_15_0" index="0" disallow="tram rail_urban rail rail_electric rail_fast ship container cable_car subway aircraft wheelchair scooter drone" speed="27.78" length="14.55" shape="195.40,72.09 196.20,57.55"/>
        <lane id=":99181966_15_1" index="1" disallow="tram rail_urban rail rail_electric rail_fast ship container cable_car subway aircraft wheelchair scooter drone" speed="27.78" length="14.55" shape="198.60,72.25 199.40,57.74"/>
    </edge>