<?xml version="1.0" encoding="UTF-8"?>

<!-- generated on 2024-11-07 17:28:56.876504 by randomTrips.py UNKNOWN
<configuration>
    <net-file value="osm.net.xml"/>
    <output-trip-file value="osm.rou.xml"/>
    <trip-attributes value="departSpeed=&quot;max&quot; departLane=&quot;best&quot;"/>
    <fringe-factor value="4"/>
    <min-distance value="50.0"/>
    <max-distance value="500.0"/>
    <validate value="True"/>
    <end value="80000.0"/>
    <period value="2.0"/>
</configuration>
-->

<!-- generated on 2024-11-07 17:28:53 by Eclipse SUMO duarouter Version 1.20.0
<configuration xmlns:xsi="http://www.w3.org/2001/XMLSchema-instance" xsi:noNamespaceSchemaLocation="http://sumo.dlr.de/xsd/duarouterConfiguration.xsd">

    <input>
        <net-file value="osm.net.xml"/>
        <route-files value="osm.rou.xml"/>
    </input>

    <output>
        <output-file value="osm.rou.xml.tmp"/>
        <alternatives-output value="NUL"/>
        <write-trips value="true"/>
    </output>

    <time>
        <begin value="0"/>
        <end value="80000.0"/>
    </time>

    <report>
        <no-warnings value="true"/>
        <ignore-errors value="true"/>
        <no-step-log value="true"/>
    </report>

</configuration>
-->

<routes xmlns:xsi="http://www.w3.org/2001/XMLSchema-instance" xsi:noNamespaceSchemaLocation="http://sumo.dlr.de/xsd/routes_file.xsd">
    <trip id="0" depart="0.00" departLane="best" departSpeed="max" from="1308087258#1" to="-1033114986#1"/>
    <trip id="1" depart="2.00" departLane="best" departSpeed="max" from="1033114986#0" to="-11132380#3"/>
    <trip id="3" depart="6.00" departLane="best" departSpeed="max" from="905795884#0" to="-1033114986#1"/>
    <trip id="4" depart="8.00" departLane="best" departSpeed="max" from="1061061170#0" to="-1033114986#1"/>
    <trip id="5" depart="10.00" departLane="best" departSpeed="max" from="1033114986#0" to="11126842#0"/>
    <trip id="6" depart="12.00" departLane="best" departSpeed="max" from="-11126842#2" to="-11132380#3"/>
    <trip id="7" depart="14.00" departLane="best" departSpeed="max" from="1308087258#1" to="11126842#0"/>
    <trip id="8" depart="16.00" departLane="best" departSpeed="max" from="1033114986#0" to="534585125#0"/>
    <trip id="9" depart="18.00" departLane="best" departSpeed="max" from="534909560" to="534585125#0"/>
    <trip id="10" depart="20.00" departLane="best" departSpeed="max" from="1061061170#0" to="-11132380#3"/>
    <trip id="11" depart="22.00" departLane="best" departSpeed="max" from="905795884#0" to="-1113602600#2"/>
    <trip id="16" depart="32.00" departLane="best" departSpeed="max" from="1061061170#0" to="11126842#0"/>
    <trip id="17" depart="34.00" departLane="best" departSpeed="max" from="534909560" to="534585125#0"/>
    <trip id="19" depart="38.00" departLane="best" departSpeed="max" from="534585126#0" to="-1033114986#1"/>
    <trip id="20" depart="40.00" departLane="best" departSpeed="max" from="1033114986#0" to="-1113602600#2"/>
    <trip id="21" depart="42.00" departLane="best" departSpeed="max" from="-11126842#2" to="-11132380#3"/>
    <trip id="23" depart="46.00" departLane="best" departSpeed="max" from="1061061170#0" to="-11132380#3"/>
    <trip id="24" depart="48.00" departLane="best" departSpeed="max" from="1033114986#0" to="534971017#0"/>
    <trip id="25" depart="50.00" departLane="best" departSpeed="max" from="1308087258#1" to="534585125#0"/>
    <trip id="28" depart="56.00" departLane="best" departSpeed="max" from="11132380#1" to="534585125#0"/>
    <trip id="30" depart="60.00" departLane="best" departSpeed="max" from="1061061170#0" to="-1113602600#2"/>
    <trip id="31" depart="62.00" departLane="best" departSpeed="max" from="1033114986#0" to="534971017#0"/>
    <trip id="32" depart="64.00" departLane="best" departSpeed="max" from="905795884#0" to="-1113602600#2"/>
    <trip id="34" depart="68.00" departLane="best" departSpeed="max" from="1033114986#0" to="-11132380#3"/>
    <trip id="35" depart="70.00" departLane="best" departSpeed="max" from="1308087258#1" to="534971017#0"/>
    <trip id="36" depart="72.00" departLane="best" departSpeed="max" from="1061061170#0" to="-11132380#3"/>
    <trip id="40" depart="80.00" departLane="best" departSpeed="max" from="534585128#0" to="-1113602603#2"/>
    <trip id="44" depart="88.00" departLane="best" departSpeed="max" from="1308087258#1" to="11126842#0"/>
    <trip id="45" depart="90.00" departLane="best" departSpeed="max" from="1033114986#0" to="534585125#0"/>
    <trip id="46" depart="92.00" departLane="best" departSpeed="max" from="11132380#1" to="534971017#0"/>
    <trip id="47" depart="94.00" departLane="best" departSpeed="max" from="905795884#0" to="-11132380#3"/>
    <trip id="48" depart="96.00" departLane="best" departSpeed="max" from="1033114986#0" to="534585125#0"/>
    <trip id="49" depart="98.00" departLane="best" departSpeed="max" from="1308087258#1" to="-11132380#3"/>
    <trip id="50" depart="100.00" departLane="best" departSpeed="max" from="534585127#0" to="11126842#0"/>
    <trip id="53" depart="106.00" departLane="best" departSpeed="max" from="-11126842#2" to="534971017#0"/>
    <trip id="55" depart="110.00" departLane="best" departSpeed="max" from="1061061170#0" to="-1033114986#1"/>
    <trip id="59" depart="118.00" departLane="best" departSpeed="max" from="1033114986#0" to="534971017#0"/>
    <trip id="60" depart="120.00" departLane="best" departSpeed="max" from="1061061170#0" to="-11132380#3"/>
    <trip id="62" depart="124.00" departLane="best" departSpeed="max" from="1033114986#0" to="-1113602600#2"/>
    <trip id="64" depart="128.00" departLane="best" departSpeed="max" from="-11126842#2" to="-11132380#3"/>
    <trip id="65" depart="130.00" departLane="best" departSpeed="max" from="1033114986#0" to="-11132380#3"/>
    <trip id="67" depart="134.00" departLane="best" departSpeed="max" from="1033114986#0" to="534971017#0"/>
    <trip id="69" depart="138.00" departLane="best" departSpeed="max" from="1033114986#0" to="534585125#0"/>
    <trip id="70" depart="140.00" departLane="best" departSpeed="max" from="11132380#1" to="534585128#0"/>
    <trip id="71" depart="142.00" departLane="best" departSpeed="max" from="534909560" to="-11132380#3"/>
    <trip id="73" depart="146.00" departLane="best" departSpeed="max" from="1061061170#0" to="11126842#0"/>
    <trip id="75" depart="150.00" departLane="best" departSpeed="max" from="905795884#0" to="-1033114986#1"/>
    <trip id="76" depart="152.00" departLane="best" departSpeed="max" from="1061061170#0" to="-1113602600#2"/>
    <trip id="77" depart="154.00" departLane="best" departSpeed="max" from="897446895#0" to="-11132380#3"/>
    <trip id="78" depart="156.00" departLane="best" departSpeed="max" from="1033114986#0" to="11126842#0"/>
    <trip id="79" depart="158.00" departLane="best" departSpeed="max" from="1061061170#0" to="-1113602600#2"/>
    <trip id="80" depart="160.00" departLane="best" departSpeed="max" from="1033114986#0" to="534971017#0"/>
    <trip id="81" depart="162.00" departLane="best" departSpeed="max" from="11132380#1" to="534971017#0"/>
    <trip id="82" depart="164.00" departLane="best" departSpeed="max" from="11132380#1" to="-1033114986#1"/>
    <trip id="83" depart="166.00" departLane="best" departSpeed="max" from="897446895#0" to="-11132380#3"/>
    <trip id="84" depart="168.00" departLane="best" departSpeed="max" from="1061061170#0" to="-1033114986#1"/>
    <trip id="85" depart="170.00" departLane="best" departSpeed="max" from="1061061170#0" to="897446895#0"/>
    <trip id="87" depart="174.00" departLane="best" departSpeed="max" from="11132380#1" to="-1113602603#2"/>
    <trip id="93" depart="186.00" departLane="best" departSpeed="max" from="11132380#1" to="534971017#0"/>
    <trip id="95" depart="190.00" departLane="best" departSpeed="max" from="-11126842#2" to="-11132380#3"/>
    <trip id="96" depart="192.00" departLane="best" departSpeed="max" from="1308087258#1" to="534585125#0"/>
    <trip id="97" depart="194.00" departLane="best" departSpeed="max" from="905795884#0" to="-11132380#3"/>
    <trip id="98" depart="196.00" departLane="best" departSpeed="max" from="1308087258#1" to="534585125#0"/>
    <trip id="99" depart="198.00" departLane="best" departSpeed="max" from="11132380#1" to="534971017#0"/>
    <trip id="101" depart="202.00" departLane="best" departSpeed="max" from="1033114986#0" to="-1113602600#2"/>
    <trip id="102" depart="204.00" departLane="best" departSpeed="max" from="1061061170#0" to="534585127#0"/>
    <trip id="104" depart="208.00" departLane="best" departSpeed="max" from="-11126842#2" to="-11132380#3"/>
    <trip id="105" depart="210.00" departLane="best" departSpeed="max" from="1033114986#0" to="534971017#0"/>
    <trip id="106" depart="212.00" departLane="best" departSpeed="max" from="1061061170#0" to="-11132380#3"/>
    <trip id="108" depart="216.00" departLane="best" departSpeed="max" from="1308087258#1" to="897446895#0"/>
    <trip id="109" depart="218.00" departLane="best" departSpeed="max" from="1308087258#1" to="-1033114986#1"/>
    <trip id="110" depart="220.00" departLane="best" departSpeed="max" from="534909560" to="-1113602600#2"/>
    <trip id="111" depart="222.00" departLane="best" departSpeed="max" from="1308087258#1" to="534971017#0"/>
    <trip id="112" depart="224.00" departLane="best" departSpeed="max" from="-1113602603#2" to="-1033114986#1"/>
    <trip id="113" depart="226.00" departLane="best" departSpeed="max" from="1033114986#0" to="534585125#0"/>
    <trip id="114" depart="228.00" departLane="best" departSpeed="max" from="534585126#0" to="-11132380#3"/>
    <trip id="115" depart="230.00" departLane="best" departSpeed="max" from="1308087258#1" to="-11132380#3"/>
    <trip id="116" depart="232.00" departLane="best" departSpeed="max" from="11132380#1" to="534971017#0"/>
    <trip id="118" depart="236.00" departLane="best" departSpeed="max" from="1061061170#0" to="-1113602600#2"/>
    <trip id="120" depart="240.00" departLane="best" departSpeed="max" from="1308087258#1" to="-11132380#3"/>
    <trip id="121" depart="242.00" departLane="best" departSpeed="max" from="534585127#0" to="11126842#0"/>
    <trip id="122" depart="244.00" departLane="best" departSpeed="max" from="1061061170#0" to="-1033114986#1"/>
    <trip id="123" depart="246.00" departLane="best" departSpeed="max" from="-11126842#2" to="534971017#0"/>
    <trip id="126" depart="252.00" departLane="best" departSpeed="max" from="-1113602603#2" to="-1033114986#1"/>
    <trip id="128" depart="256.00" departLane="best" departSpeed="max" from="905795884#0" to="-11132380#3"/>
    <trip id="131" depart="262.00" departLane="best" departSpeed="max" from="897446895#0" to="897446895#0"/>
    <trip id="132" depart="264.00" departLane="best" departSpeed="max" from="534909560" to="534971017#0"/>
    <trip id="134" depart="268.00" departLane="best" departSpeed="max" from="534909560" to="534971017#0"/>
    <trip id="135" depart="270.00" departLane="best" departSpeed="max" from="534909560" to="-1113602600#2"/>
    <trip id="136" depart="272.00" departLane="best" departSpeed="max" from="534585128#0" to="-1033114986#1"/>
    <trip id="137" depart="274.00" departLane="best" departSpeed="max" from="1033114986#0" to="534909560"/>
    <trip id="138" depart="276.00" departLane="best" departSpeed="max" from="11132380#1" to="-1113602600#2"/>
    <trip id="140" depart="280.00" departLane="best" departSpeed="max" from="-11126842#2" to="-11132380#3"/>
    <trip id="141" depart="282.00" departLane="best" departSpeed="max" from="905795884#0" to="-1113602600#2"/>
    <trip id="143" depart="286.00" departLane="best" departSpeed="max" from="905795884#0" to="-1033114986#1"/>
    <trip id="144" depart="288.00" departLane="best" departSpeed="max" from="905795884#0" to="-11132380#3"/>
    <trip id="145" depart="290.00" departLane="best" departSpeed="max" from="905795884#0" to="-11132380#3"/>
    <trip id="146" depart="292.00" departLane="best" departSpeed="max" from="534585126#0" to="-1113602600#2"/>
    <trip id="147" depart="294.00" departLane="best" departSpeed="max" from="1308087258#1" to="11126842#0"/>
    <trip id="149" depart="298.00" departLane="best" departSpeed="max" from="-11126842#2" to="534971017#0"/>
    <trip id="152" depart="304.00" departLane="best" departSpeed="max" from="1061061170#0" to="-1033114986#1"/>
    <trip id="153" depart="306.00" departLane="best" departSpeed="max" from="534585126#0" to="-1113602600#2"/>
    <trip id="154" depart="308.00" departLane="best" departSpeed="max" from="1061061170#0" to="-1113602603#2"/>
    <trip id="155" depart="310.00" departLane="best" departSpeed="max" from="1061061170#0" to="-1113602600#2"/>
    <trip id="157" depart="314.00" departLane="best" departSpeed="max" from="1061061170#0" to="11126842#0"/>
    <trip id="159" depart="318.00" departLane="best" departSpeed="max" from="1308087258#1" to="11126842#0"/>
    <trip id="160" depart="320.00" departLane="best" departSpeed="max" from="11132380#1" to="534971017#0"/>
    <trip id="162" depart="324.00" departLane="best" departSpeed="max" from="534909560" to="534585127#0"/>
    <trip id="163" depart="326.00" departLane="best" departSpeed="max" from="1308087258#1" to="-11132380#3"/>
    <trip id="164" depart="328.00" departLane="best" departSpeed="max" from="1033114986#0" to="11126842#0"/>
    <trip id="166" depart="332.00" departLane="best" departSpeed="max" from="1033114986#0" to="534585125#0"/>
    <trip id="167" depart="334.00" departLane="best" departSpeed="max" from="1308087258#1" to="-1033114986#1"/>
    <trip id="169" depart="338.00" departLane="best" departSpeed="max" from="1033114986#0" to="534971017#0"/>
    <trip id="170" depart="340.00" departLane="best" departSpeed="max" from="11132380#1" to="-1033114986#1"/>
    <trip id="171" depart="342.00" departLane="best" departSpeed="max" from="1033114986#0" to="534971017#0"/>
    <trip id="173" depart="346.00" departLane="best" departSpeed="max" from="1308087258#1" to="897446895#0"/>
    <trip id="174" depart="348.00" departLane="best" departSpeed="max" from="1308087258#1" to="534971017#0"/>
    <trip id="175" depart="350.00" departLane="best" departSpeed="max" from="534585126#0" to="11126842#0"/>
    <trip id="176" depart="352.00" departLane="best" departSpeed="max" from="534909560" to="11126842#0"/>
    <trip id="178" depart="356.00" departLane="best" departSpeed="max" from="1033114986#0" to="534585125#0"/>
    <trip id="179" depart="358.00" departLane="best" departSpeed="max" from="534585127#0" to="11126842#0"/>
    <trip id="181" depart="362.00" departLane="best" departSpeed="max" from="1033114986#0" to="-1113602600#2"/>
    <trip id="182" depart="364.00" departLane="best" departSpeed="max" from="1033114986#0" to="534585125#0"/>
    <trip id="183" depart="366.00" departLane="best" departSpeed="max" from="534585126#0" to="-1033114986#1"/>
    <trip id="184" depart="368.00" departLane="best" departSpeed="max" from="1061061170#0" to="11126842#0"/>
    <trip id="185" depart="370.00" departLane="best" departSpeed="max" from="1061061170#0" to="-11132380#3"/>
    <trip id="186" depart="372.00" departLane="best" departSpeed="max" from="1308087258#1" to="534585125#0"/>
    <trip id="187" depart="374.00" departLane="best" departSpeed="max" from="1061061170#0" to="-1033114986#1"/>
    <trip id="188" depart="376.00" departLane="best" departSpeed="max" from="1061061170#0" to="534585127#0"/>
    <trip id="189" depart="378.00" departLane="best" departSpeed="max" from="897446895#0" to="534971017#0"/>
    <trip id="190" depart="380.00" departLane="best" departSpeed="max" from="1061061170#0" to="534585127#0"/>
    <trip id="191" depart="382.00" departLane="best" departSpeed="max" from="11132380#1" to="534585125#0"/>
    <trip id="192" depart="384.00" departLane="best" departSpeed="max" from="1033114986#0" to="-11132380#3"/>
    <trip id="193" depart="386.00" departLane="best" departSpeed="max" from="11132380#1" to="-1033114986#1"/>
    <trip id="194" depart="388.00" departLane="best" departSpeed="max" from="1061061170#0" to="-11132380#3"/>
    <trip id="195" depart="390.00" departLane="best" departSpeed="max" from="11132380#1" to="-1033114986#1"/>
    <trip id="196" depart="392.00" departLane="best" departSpeed="max" from="1308087258#1" to="-1033114986#1"/>
    <trip id="197" depart="394.00" departLane="best" departSpeed="max" from="1061061170#0" to="11126842#0"/>
    <trip id="201" depart="402.00" departLane="best" departSpeed="max" from="1033114986#0" to="-1113602600#2"/>
    <trip id="203" depart="406.00" departLane="best" departSpeed="max" from="905795884#0" to="-1113602600#2"/>
    <trip id="205" depart="410.00" departLane="best" departSpeed="max" from="1308087258#1" to="534585127#0"/>
    <trip id="206" depart="412.00" departLane="best" departSpeed="max" from="905795884#0" to="-11132380#3"/>
    <trip id="207" depart="414.00" departLane="best" departSpeed="max" from="-11126842#2" to="-11132380#3"/>
    <trip id="210" depart="420.00" departLane="best" departSpeed="max" from="1033114986#0" to="534585125#0"/>
    <trip id="212" depart="424.00" departLane="best" departSpeed="max" from="534909560" to="534971017#0"/>
    <trip id="214" depart="428.00" departLane="best" departSpeed="max" from="905795884#0" to="-1113602600#2"/>
    <trip id="215" depart="430.00" departLane="best" departSpeed="max" from="534585126#0" to="-1033114986#1"/>
    <trip id="216" depart="432.00" departLane="best" departSpeed="max" from="1308087258#1" to="534585125#0"/>
    <trip id="219" depart="438.00" departLane="best" departSpeed="max" from="-11126842#2" to="897446895#0"/>
    <trip id="220" depart="440.00" departLane="best" departSpeed="max" from="534585128#0" to="-1113602600#2"/>
    <trip id="221" depart="442.00" departLane="best" departSpeed="max" from="1061061170#0" to="-1113602600#2"/>
    <trip id="222" depart="444.00" departLane="best" departSpeed="max" from="11132380#1" to="-1113602600#2"/>
    <trip id="224" depart="448.00" departLane="best" departSpeed="max" from="-11126842#2" to="534971017#0"/>
    <trip id="226" depart="452.00" departLane="best" departSpeed="max" from="534585126#0" to="11126842#0"/>
    <trip id="227" depart="454.00" departLane="best" departSpeed="max" from="534585127#0" to="534971017#0"/>
    <trip id="228" depart="456.00" departLane="best" departSpeed="max" from="1033114986#0" to="534909560"/>
    <trip id="231" depart="462.00" departLane="best" departSpeed="max" from="1033114986#0" to="534971017#0"/>
    <trip id="232" depart="464.00" departLane="best" departSpeed="max" from="905795884#0" to="-11132380#3"/>
    <trip id="233" depart="466.00" departLane="best" departSpeed="max" from="11132380#1" to="534585125#0"/>
    <trip id="234" depart="468.00" departLane="best" departSpeed="max" from="1061061170#0" to="-1033114986#1"/>
    <trip id="235" depart="470.00" departLane="best" departSpeed="max" from="897446895#0" to="-11132380#3"/>
    <trip id="237" depart="474.00" departLane="best" departSpeed="max" from="534585126#0" to="-1113602600#2"/>
    <trip id="238" depart="476.00" departLane="best" departSpeed="max" from="-11126842#2" to="534971017#0"/>
    <trip id="241" depart="482.00" departLane="best" departSpeed="max" from="1308087258#1" to="534585125#0"/>
    <trip id="242" depart="484.00" departLane="best" departSpeed="max" from="11132380#1" to="534585128#0"/>
    <trip id="243" depart="486.00" departLane="best" departSpeed="max" from="-11126842#2" to="-11132380#3"/>
    <trip id="244" depart="488.00" departLane="best" departSpeed="max" from="1308087258#1" to="11126842#0"/>
    <trip id="245" depart="490.00" departLane="best" departSpeed="max" from="11132380#1" to="-1113602603#2"/>
    <trip id="247" depart="494.00" departLane="best" departSpeed="max" from="534585126#0" to="-1113602600#2"/>
    <trip id="249" depart="498.00" departLane="best" departSpeed="max" from="1033114986#0" to="-11132380#3"/>
    <trip id="252" depart="504.00" departLane="best" departSpeed="max" from="1033114986#0" to="-11132380#3"/>
    <trip id="253" depart="506.00" departLane="best" departSpeed="max" from="11132380#1" to="-1113602600#2"/>
    <trip id="255" depart="510.00" departLane="best" departSpeed="max" from="1308087258#1" to="-1033114986#1"/>
    <trip id="260" depart="520.00" departLane="best" departSpeed="max" from="-11126842#2" to="-11132380#3"/>
    <trip id="261" depart="522.00" departLane="best" departSpeed="max" from="11132380#1" to="-1113602600#2"/>
    <trip id="262" depart="524.00" departLane="best" departSpeed="max" from="905795884#0" to="-1033114986#1"/>
    <trip id="266" depart="532.00" departLane="best" departSpeed="max" from="11132380#1" to="534971017#0"/>
    <trip id="267" depart="534.00" departLane="best" departSpeed="max" from="905795884#0" to="-1113602600#2"/>
    <trip id="268" depart="536.00" departLane="best" departSpeed="max" from="1308087258#1" to="534585125#0"/>
    <trip id="269" depart="538.00" departLane="best" departSpeed="max" from="534585127#0" to="534971017#0"/>
    <trip id="270" depart="540.00" departLane="best" departSpeed="max" from="1033114986#0" to="-11132380#3"/>
    <trip id="271" depart="542.00" departLane="best" departSpeed="max" from="1308087258#1" to="-11132380#3"/>
    <trip id="273" depart="546.00" departLane="best" departSpeed="max" from="534585126#0" to="11126842#0"/>
    <trip id="274" depart="548.00" departLane="best" departSpeed="max" from="1308087258#1" to="534971017#0"/>
    <trip id="275" depart="550.00" departLane="best" departSpeed="max" from="534585128#0" to="534585125#0"/>
    <trip id="276" depart="552.00" departLane="best" departSpeed="max" from="1308087258#1" to="534971017#0"/>
    <trip id="277" depart="554.00" departLane="best" departSpeed="max" from="1061061170#0" to="11126842#0"/>
    <trip id="278" depart="556.00" departLane="best" departSpeed="max" from="1308087258#1" to="534971017#0"/>
    <trip id="281" depart="562.00" departLane="best" departSpeed="max" from="1308087258#1" to="534585125#0"/>
    <trip id="283" depart="566.00" departLane="best" departSpeed="max" from="11132380#1" to="-1033114986#1"/>
    <trip id="285" depart="570.00" departLane="best" departSpeed="max" from="1061061170#0" to="-11132380#3"/>
    <trip id="286" depart="572.00" departLane="best" departSpeed="max" from="-11126842#2" to="534971017#0"/>
    <trip id="290" depart="580.00" departLane="best" departSpeed="max" from="11132380#1" to="534585125#0"/>
    <trip id="291" depart="582.00" departLane="best" departSpeed="max" from="905795884#0" to="-11132380#3"/>
    <trip id="292" depart="584.00" departLane="best" departSpeed="max" from="1308087258#1" to="534585125#0"/>
    <trip id="293" depart="586.00" departLane="best" departSpeed="max" from="11132380#1" to="-1033114986#1"/>
    <trip id="294" depart="588.00" departLane="best" departSpeed="max" from="1061061170#0" to="-1113602600#2"/>
    <trip id="295" depart="590.00" departLane="best" departSpeed="max" from="1308087258#1" to="534971017#0"/>
    <trip id="296" depart="592.00" departLane="best" departSpeed="max" from="1033114986#0" to="534971017#0"/>
    <trip id="297" depart="594.00" departLane="best" departSpeed="max" from="534909560" to="11126842#0"/>
    <trip id="298" depart="596.00" departLane="best" departSpeed="max" from="11132380#1" to="-1113602600#2"/>
    <trip id="299" depart="598.00" departLane="best" departSpeed="max" from="1061061170#0" to="897446895#0"/>
    <trip id="300" depart="600.00" departLane="best" departSpeed="max" from="1061061170#0" to="11126842#0"/>
    <trip id="301" depart="602.00" departLane="best" departSpeed="max" from="11132380#1" to="-1113602603#2"/>
    <trip id="302" depart="604.00" departLane="best" departSpeed="max" from="1033114986#0" to="-1113602600#2"/>
    <trip id="304" depart="608.00" departLane="best" departSpeed="max" from="534585127#0" to="-11132380#3"/>
    <trip id="305" depart="610.00" departLane="best" departSpeed="max" from="11132380#1" to="534971017#0"/>
    <trip id="306" depart="612.00" departLane="best" departSpeed="max" from="11132380#1" to="534585125#0"/>
    <trip id="307" depart="614.00" departLane="best" departSpeed="max" from="-11126842#2" to="897446895#0"/>
    <trip id="308" depart="616.00" departLane="best" departSpeed="max" from="1308087258#1" to="-11132380#3"/>
    <trip id="310" depart="620.00" departLane="best" departSpeed="max" from="11132380#1" to="-1033114986#1"/>
    <trip id="311" depart="622.00" departLane="best" departSpeed="max" from="11132380#1" to="-1033114986#1"/>
    <trip id="312" depart="624.00" departLane="best" departSpeed="max" from="534909560" to="11126842#0"/>
    <trip id="313" depart="626.00" departLane="best" departSpeed="max" from="534585126#0" to="11126842#0"/>
    <trip id="314" depart="628.00" departLane="best" departSpeed="max" from="1033114986#0" to="534971017#0"/>
    <trip id="315" depart="630.00" departLane="best" departSpeed="max" from="905795884#0" to="-11132380#3"/>
    <trip id="316" depart="632.00" departLane="best" departSpeed="max" from="11132380#1" to="-1113602600#2"/>
    <trip id="320" depart="640.00" departLane="best" departSpeed="max" from="1033114986#0" to="-1113602600#2"/>
    <trip id="321" depart="642.00" departLane="best" departSpeed="max" from="1308087258#1" to="897446895#0"/>
    <trip id="322" depart="644.00" departLane="best" departSpeed="max" from="11132380#1" to="-1113602600#2"/>
    <trip id="324" depart="648.00" departLane="best" departSpeed="max" from="11132380#1" to="-1113602600#2"/>
    <trip id="325" depart="650.00" departLane="best" departSpeed="max" from="1033114986#0" to="534585125#0"/>
    <trip id="326" depart="652.00" departLane="best" departSpeed="max" from="1308087258#1" to="-11132380#3"/>
    <trip id="327" depart="654.00" departLane="best" departSpeed="max" from="534585128#0" to="-1033114986#1"/>
    <trip id="328" depart="656.00" departLane="best" departSpeed="max" from="534909560" to="-1113602600#2"/>
    <trip id="331" depart="662.00" departLane="best" departSpeed="max" from="1308087258#1" to="534971017#0"/>
    <trip id="334" depart="668.00" departLane="best" departSpeed="max" from="534585126#0" to="-1113602603#2"/>
    <trip id="335" depart="670.00" departLane="best" departSpeed="max" from="1308087258#1" to="-11132380#3"/>
    <trip id="337" depart="674.00" departLane="best" departSpeed="max" from="1308087258#1" to="534971017#0"/>
    <trip id="338" depart="676.00" departLane="best" departSpeed="max" from="897446895#0" to="534971017#0"/>
    <trip id="339" depart="678.00" departLane="best" departSpeed="max" from="1061061170#0" to="-1113602600#2"/>
    <trip id="340" depart="680.00" departLane="best" departSpeed="max" from="534585126#0" to="534585127#0"/>
    <trip id="341" depart="682.00" departLane="best" departSpeed="max" from="905795884#0" to="-1033114986#1"/>
    <trip id="344" depart="688.00" departLane="best" departSpeed="max" from="534585127#0" to="11126842#0"/>
    <trip id="347" depart="694.00" departLane="best" departSpeed="max" from="1308087258#1" to="534971017#0"/>
    <trip id="349" depart="698.00" departLane="best" departSpeed="max" from="1033114986#0" to="-1113602600#2"/>
    <trip id="351" depart="702.00" departLane="best" departSpeed="max" from="11132380#1" to="534585128#0"/>
    <trip id="352" depart="704.00" departLane="best" departSpeed="max" from="1033114986#0" to="534971017#0"/>
    <trip id="354" depart="708.00" departLane="best" departSpeed="max" from="1033114986#0" to="-11132380#3"/>
    <trip id="357" depart="714.00" departLane="best" departSpeed="max" from="1308087258#1" to="-1113602603#2"/>
    <trip id="358" depart="716.00" departLane="best" departSpeed="max" from="1033114986#0" to="534971017#0"/>
    <trip id="359" depart="718.00" departLane="best" departSpeed="max" from="1033114986#0" to="-1113602600#2"/>
    <trip id="360" depart="720.00" departLane="best" departSpeed="max" from="1308087258#1" to="534585125#0"/>
    <trip id="361" depart="722.00" departLane="best" departSpeed="max" from="905795884#0" to="-1113602600#2"/>
    <trip id="362" depart="724.00" departLane="best" departSpeed="max" from="1033114986#0" to="11126842#0"/>
    <trip id="363" depart="726.00" departLane="best" departSpeed="max" from="1308087258#1" to="534585127#0"/>
    <trip id="365" depart="730.00" departLane="best" departSpeed="max" from="11132380#1" to="534971017#0"/>
    <trip id="367" depart="734.00" departLane="best" departSpeed="max" from="1308087258#1" to="534585125#0"/>
    <trip id="369" depart="738.00" departLane="best" departSpeed="max" from="1308087258#1" to="534971017#0"/>
    <trip id="370" depart="740.00" departLane="best" departSpeed="max" from="1308087258#1" to="534971017#0"/>
    <trip id="371" depart="742.00" departLane="best" departSpeed="max" from="11132380#1" to="534585125#0"/>
    <trip id="372" depart="744.00" departLane="best" departSpeed="max" from="534585126#0" to="-1033114986#1"/>
    <trip id="373" depart="746.00" departLane="best" departSpeed="max" from="1033114986#0" to="534585127#0"/>
    <trip id="375" depart="750.00" departLane="best" departSpeed="max" from="11132380#1" to="534971017#0"/>
    <trip id="376" depart="752.00" departLane="best" departSpeed="max" from="534909560" to="-11132380#3"/>
    <trip id="377" depart="754.00" departLane="best" departSpeed="max" from="534909560" to="11126842#0"/>
    <trip id="378" depart="756.00" departLane="best" departSpeed="max" from="534909560" to="534585127#0"/>
    <trip id="379" depart="758.00" departLane="best" departSpeed="max" from="1061061170#0" to="-1033114986#1"/>
    <trip id="380" depart="760.00" departLane="best" departSpeed="max" from="905795884#0" to="-11132380#3"/>
    <trip id="381" depart="762.00" departLane="best" departSpeed="max" from="534585126#0" to="897446895#0"/>
    <trip id="384" depart="768.00" departLane="best" departSpeed="max" from="11132380#1" to="534585125#0"/>