<?xml version="1.0" encoding="UTF-8"?>

<!-- generated on 2024-11-06 18:36:57.260552 by osmWebWizard.py v1_21_0+0000-d7b3b481c43
<configuration>
    <net-file value="C:\TrafficSignalProject\2024-11-06-18-36-51\osm.net.xml.gz"/>
    <output-trip-file value="C:\TrafficSignalProject\2024-11-06-18-36-51\osm.passenger.trips.xml"/>
    <route-file value="C:\TrafficSignalProject\2024-11-06-18-36-51\osm.passenger.rou.xml"/>
    <prefix value="veh"/>
    <trip-attributes value="departLane=&quot;best&quot;"/>
    <fringe-start-attributes value="departSpeed=&quot;max&quot;"/>
    <vehicle-class value="passenger"/>
    <lanes value="True"/>
    <fringe-factor value="5"/>
    <allow-fringe.min-length value="1000.0"/>
    <via-edge-types value="highway.motorway,highway.motorway_link,highway.trunk_link,highway.primary_link,highway.secondary_link,highway.tertiary_link"/>
    <min-distance value="300.0"/>
    <min-distance.fringe value="10.0"/>
    <remove-loops value="True"/>
    <validate value="True"/>
    <insertion-density value="12.0"/>
</configuration>
-->

<!-- generated on 2024-11-06 18:36:57 by Eclipse SUMO duarouter Version 1.21.0
<duarouterConfiguration xmlns:xsi="http://www.w3.org/2001/XMLSchema-instance" xsi:noNamespaceSchemaLocation="http://sumo.dlr.de/xsd/duarouterConfiguration.xsd">

    <input>
        <net-file value="C:\TrafficSignalProject\2024-11-06-18-36-51\osm.net.xml.gz"/>
        <route-files value="C:\TrafficSignalProject\2024-11-06-18-36-51\osm.passenger.trips.xml"/>
    </input>

    <output>
        <output-file value="C:\TrafficSignalProject\2024-11-06-18-36-51\osm.passenger.trips.xml.tmp"/>
        <alternatives-output value="NUL"/>
        <write-trips value="true"/>
    </output>

    <processing>
        <remove-loops value="true"/>
    </processing>

    <time>
        <begin value="0.0"/>
        <end value="3600.0"/>
    </time>

    <report>
        <no-warnings value="true"/>
        <ignore-errors value="true"/>
        <no-step-log value="true"/>
    </report>

</duarouterConfiguration>
-->

<routes xmlns:xsi="http://www.w3.org/2001/XMLSchema-instance" xsi:noNamespaceSchemaLocation="http://sumo.dlr.de/xsd/routes_file.xsd">
    <vType id="veh_passenger" vClass="passenger"/>
    <trip id="veh0" type="veh_passenger" depart="0.00" departLane="best" departSpeed="max" from="1020776907" to="93902166#2"/>
    <trip id="veh1" type="veh_passenger" depart="61.37" departLane="best" from="10792698#2" to="991135455"/>
    <trip id="veh2" type="veh_passenger" depart="122.73" departLane="best" departSpeed="max" from="1020776907" to="991135455"/>
    <trip id="veh3" type="veh_passenger" depart="184.10" departLane="best" departSpeed="max" from="93902166#0" to="939756172"/>
    <trip id="veh4" type="veh_passenger" depart="245.47" departLane="best" from="518530779" to="10809659#4"/>
    <trip id="veh5" type="veh_passenger" depart="306.84" departLane="best" departSpeed="max" from="-10809659#4" to="939756172"/>
    <trip id="veh6" type="veh_passenger" depart="368.20" departLane="best" departSpeed="max" from="1020776907" to="991135453"/>
    <trip id="veh7" type="veh_passenger" depart="429.57" departLane="best" from="-93902198#1" to="-93902166#1"/>
    <trip id="veh8" type="veh_passenger" depart="490.94" departLane="best" from="734499836#0" to="-93902166#1"/>
    <trip id="veh9" type="veh_passenger" depart="552.30" departLane="best" departSpeed="max" from="1051494793" to="10792698#0-AddedOffRampEdge"/>
    <trip id="veh10" type="veh_passenger" depart="613.67" departLane="best" departSpeed="max" from="1020776907" to="991135455"/>
    <trip id="veh11" type="veh_passenger" depart="675.04" departLane="best" departSpeed="max" from="10807393#0" to="82951110#0"/>
    <trip id="veh12" type="veh_passenger" depart="736.40" departLane="best" departSpeed="max" from="10807393#0" to="518530779"/>
    <trip id="veh13" type="veh_passenger" depart="797.77" departLane="best" from="-93902198#1" to="10809659#4"/>
    <trip id="veh14" type="veh_passenger" depart="859.14" departLane="best" departSpeed="max" from="1020776907" to="991135455"/>
    <trip id="veh15" type="veh_passenger" depart="920.51" departLane="best" from="-10788635#2" to="939756172"/>
    <trip id="veh16" type="veh_passenger" depart="981.87" departLane="best" from="518530779" to="991135452"/>
    <trip id="veh17" type="veh_passenger" depart="1043.24" departLane="best" from="93902198#0" to="-93902166#1"/>
    <trip id="veh18" type="veh_passenger" depart="1104.61" departLane="best" departSpeed="max" from="1051494793" to="518530779"/>
    <trip id="veh19" type="veh_passenger" depart="1165.97" departLane="best" from="-10809659#3" to="939756172"/>
    <trip id="veh20" type="veh_passenger" depart="1227.34" departLane="best" from="518530779" to="991135452"/>
    <trip id="veh21" type="veh_passenger" depart="1288.71" departLane="best" from="1051494795" to="10788635#0"/>
    <trip id="veh22" type="veh_passenger" depart="1350.07" departLane="best" from="518530779" to="93902166#2"/>
    <trip id="veh23" type="veh_passenger" depart="1411.44" departLane="best" departSpeed="max" from="1020776907" to="93902166#2"/>
    <trip id="veh24" type="veh_passenger" depart="1472.81" departLane="best" from="-10788635#2" to="991135455"/>
    <trip id="veh26" type="veh_passenger" depart="1595.54" departLane="best" departSpeed="max" from="1020776907" to="991135452"/>
    <trip id="veh27" type="veh_passenger" depart="1656.91" departLane="best" from="93902166#2" to="518530779"/>
    <trip id="veh28" type="veh_passenger" depart="1718.28" departLane="best" departSpeed="max" from="10807393#0" to="82951110#0"/>
    <trip id="veh29" type="veh_passenger" depart="1779.64" departLane="best" departSpeed="max" from="93902166#0" to="939756172"/>
    <trip id="veh30" type="veh_passenger" depart="1841.01" departLane="best" from="-82951110#3" to="-93902166#1"/>
    <trip id="veh31" type="veh_passenger" depart="1902.38" departLane="best" departSpeed="max" from="1051494793" to="82951110#0"/>
    <trip id="veh33" type="veh_passenger" depart="2025.11" departLane="best" departSpeed="max" from="-10809659#4" to="10798730#0"/>
    <trip id="veh34" type="veh_passenger" depart="2086.48" departLane="best" from="137682838#0" to="10798730#0"/>
    <trip id="veh35" type="veh_passenger" depart="2147.85" departLane="best" from="1313407460#0" to="991135452"/>
    <trip id="veh36" type="veh_passenger" depart="2209.21" departLane="best" departSpeed="max" from="1051494793" to="82951110#0"/>
    <trip id="veh37" type="veh_passenger" depart="2270.58" departLane="best" from="1313407460#0" to="991135455"/>
    <trip id="veh38" type="veh_passenger" depart="2331.95" departLane="best" departSpeed="max" from="1020776907" to="991135452"/>
    <trip id="veh39" type="veh_passenger" depart="2393.31" departLane="best" from="-10798730#3" to="991135455"/>
    <trip id="veh40" type="veh_passenger" depart="2454.68" departLane="best" from="734499836#0" to="10809659#4"/>
    <trip id="veh41" type="veh_passenger" depart="2516.05" departLane="best" departSpeed="max" from="10807393#0" to="10788635#0"/>
    <trip id="veh42" type="veh_passenger" depart="2577.41" departLane="best" from="518530779" to="93902166#2"/>
    <trip id="veh43" type="veh_passenger" depart="2638.78" departLane="best" from="1313407460#0" to="991135455"/>
    <trip id="veh44" type="veh_passenger" depart="2700.15" departLane="best" departSpeed="max" from="-10809659#4" to="939756172"/>
    <trip id="veh45" type="veh_passenger" depart="2761.52" departLane="best" from="939756173" to="-93902166#1"/>
    <trip id="veh46" type="veh_passenger" depart="2822.88" departLane="best" departSpeed="max" from="1051494793" to="10792698#0-AddedOffRampEdge"/>
    <trip id="veh47" type="veh_passenger" depart="2884.25" departLane="best" departSpeed="max" from="1051494793" to="82951110#0"/>
    <trip id="veh48" type="veh_passenger" depart="2945.62" departLane="best" from="10792698#2" to="10809659#4"/>
    <trip id="veh49" type="veh_passenger" depart="3006.98" departLane="best" from="137682838#0" to="518530779"/>
    <trip id="veh50" type="veh_passenger" depart="3068.35" departLane="best" departSpeed="max" from="1020776907" to="991135452"/>
    <trip id="veh51" type="veh_passenger" depart="3129.72" departLane="best" departSpeed="max" from="10807393#0" to="-93902198#1"/>
    <trip id="veh52" type="veh_passenger" depart="3191.08" departLane="best" from="734499836#0" to="10809659#0"/>
    <trip id="veh53" type="veh_passenger" depart="3252.45" departLane="best" departSpeed="max" from="1051494793" to="82951110#0"/>
    <trip id="veh55" type="veh_passenger" depart="3375.19" departLane="best" departSpeed="max" from="-10809659#4" to="939756172"/>
    <trip id="veh56" type="veh_passenger" depart="3436.55" departLane="best" departSpeed="max" from="1051494793" to="10798730#0"/>
    <trip id="veh57" type="veh_passenger" depart="3497.92" departLane="best" departSpeed="max" from="93902166#0" to="518530779"/>
    <trip id="veh58" type="veh_passenger" depart="3559.29" departLane="best" departSpeed="max" from="1020776907" to="991135455"/>
</routes>
