<?xml version="1.0" encoding="UTF-8"?>

<!-- generated on 2024-11-05 11:13:31.093159 by randomTrips.py UNKNOWN
<configuration>
    <net-file value="osm.net.xml"/>
    <output-trip-file value="/Users/jamesb/Documents/init-build/test.rou.xml"/>
    <trip-attributes value="departSpeed=&quot;max&quot; departLane=&quot;best&quot;"/>
    <fringe-factor value="4"/>
    <min-distance value="50.0"/>
    <max-distance value="500.0"/>
    <validate value="True"/>
    <end value="80000.0"/>
    <period value="4.0"/>
</configuration>
-->

<!-- generated on 2024-11-05 11:13:29 by Eclipse SUMO duarouter Version 1.20.0
<configuration xmlns:xsi="http://www.w3.org/2001/XMLSchema-instance" xsi:noNamespaceSchemaLocation="http://sumo.dlr.de/xsd/duarouterConfiguration.xsd">

    <input>
        <net-file value="osm.net.xml"/>
        <route-files value="/Users/jamesb/Documents/init-build/test.rou.xml"/>
    </input>

    <output>
        <output-file value="routes.rou.xml"/>
        <alternatives-output value="NUL"/>
    </output>

    <time>
        <begin value="0"/>
        <end value="80000.0"/>
    </time>

    <report>
        <no-warnings value="true"/>
        <ignore-errors value="true"/>
        <no-step-log value="true"/>
    </report>

</configuration>
-->

<routes xmlns:xsi="http://www.w3.org/2001/XMLSchema-instance" xsi:noNamespaceSchemaLocation="http://sumo.dlr.de/xsd/routes_file.xsd">
    <vehicle id="0" depart="0.00" departLane="best" departSpeed="max">
        <route edges="1308087258#1 -1113602603#2 -1033114986#1"/>
    </vehicle>
    <vehicle id="1" depart="4.00" departLane="best" departSpeed="max">
        <route edges="1033114986#0 534909560 534585127#0 897446895#0 -11132380#3"/>
    </vehicle>
    <vehicle id="3" depart="12.00" departLane="best" departSpeed="max">
        <route edges="905795884#0 534585128#0 -1113602603#2 -1033114986#1"/>
    </vehicle>
    <vehicle id="4" depart="16.00" departLane="best" departSpeed="max">
        <route edges="1061061170#0 534585126#0 -1113602603#2 -1033114986#1"/>
    </vehicle>
    <vehicle id="5" depart="20.00" departLane="best" departSpeed="max">
        <route edges="1033114986#0 534909560 534585127#0 11126842#0"/>
    </vehicle>
    <vehicle id="6" depart="24.00" departLane="best" departSpeed="max">
        <route edges="-11126842#2 897446895#0 -11132380#3"/>
    </vehicle>
    <vehicle id="7" depart="28.00" departLane="best" departSpeed="max">
        <route edges="1308087258#1 534585127#0 11126842#0"/>
    </vehicle>
    <vehicle id="8" depart="32.00" departLane="best" departSpeed="max">
        <route edges="1033114986#0 534909560 534585125#0"/>
    </vehicle>
    <vehicle id="9" depart="36.00" departLane="best" departSpeed="max">
        <route edges="534909560 534585125#0"/>
    </vehicle>
    <vehicle id="10" depart="40.00" departLane="best" departSpeed="max">
        <route edges="1061061170#0 534585126#0 534585127#0 897446895#0 -11132380#3"/>
    </vehicle>
    <vehicle id="11" depart="44.00" departLane="best" departSpeed="max">
        <route edges="905795884#0 534585128#0 -1113602600#2"/>
    </vehicle>
    <vehicle id="16" depart="64.00" departLane="best" departSpeed="max">
        <route edges="1061061170#0 534585126#0 534585127#0 11126842#0"/>
    </vehicle>
    <vehicle id="17" depart="68.00" departLane="best" departSpeed="max">
        <route edges="534909560 534585125#0"/>
    </vehicle>
    <vehicle id="19" depart="76.00" departLane="best" departSpeed="max">
        <route edges="534585126#0 -1113602603#2 -1033114986#1"/>
    </vehicle>
    <vehicle id="20" depart="80.00" departLane="best" departSpeed="max">
        <route edges="1033114986#0 534909560 -1113602600#2"/>
    </vehicle>
    <vehicle id="21" depart="84.00" departLane="best" departSpeed="max">
        <route edges="-11126842#2 897446895#0 -11132380#3"/>
    </vehicle>
    <vehicle id="23" depart="92.00" departLane="best" departSpeed="max">
        <route edges="1061061170#0 534585126#0 534585127#0 897446895#0 -11132380#3"/>
    </vehicle>
    <vehicle id="24" depart="96.00" departLane="best" departSpeed="max">
        <route edges="1033114986#0 534909560 534585127#0 897446895#0 534971017#0"/>
    </vehicle>
    <vehicle id="25" depart="100.00" departLane="best" departSpeed="max">
        <route edges="1308087258#1 534585125#0"/>
    </vehicle>
    <vehicle id="28" depart="112.00" departLane="best" departSpeed="max">
        <route edges="11132380#1 534585128#0 534585125#0"/>
    </vehicle>
    <vehicle id="30" depart="120.00" departLane="best" departSpeed="max">
        <route edges="1061061170#0 534585126#0 -1113602600#2"/>
    </vehicle>
    <vehicle id="31" depart="124.00" departLane="best" departSpeed="max">
        <route edges="1033114986#0 534909560 534585127#0 897446895#0 534971017#0"/>
    </vehicle>
    <vehicle id="32" depart="128.00" departLane="best" departSpeed="max">
        <route edges="905795884#0 534585128#0 -1113602600#2"/>
    </vehicle>
    <vehicle id="34" depart="136.00" departLane="best" departSpeed="max">
        <route edges="1033114986#0 534909560 534585127#0 897446895#0 -11132380#3"/>
    </vehicle>
    <vehicle id="35" depart="140.00" departLane="best" departSpeed="max">
        <route edges="1308087258#1 534585127#0 897446895#0 534971017#0"/>
    </vehicle>
    <vehicle id="36" depart="144.00" departLane="best" departSpeed="max">
        <route edges="1061061170#0 534585126#0 534585127#0 897446895#0 -11132380#3"/>
    </vehicle>
    <vehicle id="40" depart="160.00" departLane="best" departSpeed="max">
        <route edges="534585128#0 -1113602603#2"/>
    </vehicle>
    <vehicle id="44" depart="176.00" departLane="best" departSpeed="max">
        <route edges="1308087258#1 534585127#0 11126842#0"/>
    </vehicle>
    <vehicle id="45" depart="180.00" departLane="best" departSpeed="max">
        <route edges="1033114986#0 534909560 534585125#0"/>
    </vehicle>
    <vehicle id="46" depart="184.00" departLane="best" departSpeed="max">
        <route edges="11132380#1 534971017#0"/>
    </vehicle>
    <vehicle id="47" depart="188.00" departLane="best" departSpeed="max">
        <route edges="905795884#0 -11132380#3"/>
    </vehicle>
    <vehicle id="48" depart="192.00" departLane="best" departSpeed="max">
        <route edges="1033114986#0 534909560 534585125#0"/>
    </vehicle>
    <vehicle id="49" depart="196.00" departLane="best" departSpeed="max">
        <route edges="1308087258#1 534585127#0 897446895#0 -11132380#3"/>
    </vehicle>
    <vehicle id="50" depart="200.00" departLane="best" departSpeed="max">
        <route edges="534585127#0 11126842#0"/>
    </vehicle>
    <vehicle id="53" depart="212.00" departLane="best" departSpeed="max">
        <route edges="-11126842#2 897446895#0 534971017#0"/>
    </vehicle>
    <vehicle id="55" depart="220.00" departLane="best" departSpeed="max">
        <route edges="1061061170#0 534585126#0 -1113602603#2 -1033114986#1"/>
    </vehicle>
    <vehicle id="59" depart="236.00" departLane="best" departSpeed="max">
        <route edges="1033114986#0 534909560 534585127#0 897446895#0 534971017#0"/>
    </vehicle>
    <vehicle id="60" depart="240.00" departLane="best" departSpeed="max">
        <route edges="1061061170#0 534585126#0 534585127#0 897446895#0 -11132380#3"/>
    </vehicle>
    <vehicle id="62" depart="248.00" departLane="best" departSpeed="max">
        <route edges="1033114986#0 534909560 -1113602600#2"/>
    </vehicle>
    <vehicle id="64" depart="256.00" departLane="best" departSpeed="max">
        <route edges="-11126842#2 897446895#0 -11132380#3"/>
    </vehicle>
    <vehicle id="65" depart="260.00" departLane="best" departSpeed="max">
        <route edges="1033114986#0 534909560 534585127#0 897446895#0 -11132380#3"/>
    </vehicle>
    <vehicle id="67" depart="268.00" departLane="best" departSpeed="max">
        <route edges="1033114986#0 534909560 534585127#0 897446895#0 534971017#0"/>
    </vehicle>
    <vehicle id="69" depart="276.00" departLane="best" departSpeed="max">
        <route edges="1033114986#0 534909560 534585125#0"/>
    </vehicle>
    <vehicle id="70" depart="280.00" departLane="best" departSpeed="max">
        <route edges="11132380#1 534585128#0"/>
    </vehicle>
    <vehicle id="71" depart="284.00" departLane="best" departSpeed="max">
        <route edges="534909560 534585127#0 897446895#0 -11132380#3"/>
    </vehicle>
    <vehicle id="73" depart="292.00" departLane="best" departSpeed="max">
        <route edges="1061061170#0 534585126#0 534585127#0 11126842#0"/>
    </vehicle>
    <vehicle id="75" depart="300.00" departLane="best" departSpeed="max">
        <route edges="905795884#0 534585128#0 -1113602603#2 -1033114986#1"/>
    </vehicle>
    <vehicle id="76" depart="304.00" departLane="best" departSpeed="max">
        <route edges="1061061170#0 534585126#0 -1113602600#2"/>
    </vehicle>
    <vehicle id="77" depart="308.00" departLane="best" departSpeed="max">
        <route edges="897446895#0 -11132380#3"/>
    </vehicle>
    <vehicle id="78" depart="312.00" departLane="best" departSpeed="max">
        <route edges="1033114986#0 534909560 534585127#0 11126842#0"/>
    </vehicle>
    <vehicle id="79" depart="316.00" departLane="best" departSpeed="max">
        <route edges="1061061170#0 534585126#0 -1113602600#2"/>
    </vehicle>
    <vehicle id="80" depart="320.00" departLane="best" departSpeed="max">
        <route edges="1033114986#0 534909560 534585127#0 897446895#0 534971017#0"/>
    </vehicle>
    <vehicle id="81" depart="324.00" departLane="best" departSpeed="max">
        <route edges="11132380#1 534971017#0"/>
    </vehicle>
    <vehicle id="82" depart="328.00" departLane="best" departSpeed="max">
        <route edges="11132380#1 534585128#0 -1113602603#2 -1033114986#1"/>
    </vehicle>
    <vehicle id="83" depart="332.00" departLane="best" departSpeed="max">
        <route edges="897446895#0 -11132380#3"/>
    </vehicle>
    <vehicle id="84" depart="336.00" departLane="best" departSpeed="max">
        <route edges="1061061170#0 534585126#0 -1113602603#2 -1033114986#1"/>
    </vehicle>
    <vehicle id="85" depart="340.00" departLane="best" departSpeed="max">
        <route edges="1061061170#0 534585126#0 534585127#0 897446895#0"/>
    </vehicle>
    <vehicle id="87" depart="348.00" departLane="best" departSpeed="max">
        <route edges="11132380#1 534585128#0 -1113602603#2"/>
    </vehicle>
    <vehicle id="93" depart="372.00" departLane="best" departSpeed="max">
        <route edges="11132380#1 534971017#0"/>
    </vehicle>
    <vehicle id="95" depart="380.00" departLane="best" departSpeed="max">
        <route edges="-11126842#2 897446895#0 -11132380#3"/>
    </vehicle>
    <vehicle id="96" depart="384.00" departLane="best" departSpeed="max">
        <route edges="1308087258#1 534585125#0"/>
    </vehicle>
    <vehicle id="97" depart="388.00" departLane="best" departSpeed="max">
        <route edges="905795884#0 -11132380#3"/>
    </vehicle>
    <vehicle id="98" depart="392.00" departLane="best" departSpeed="max">
        <route edges="1308087258#1 534585125#0"/>
    </vehicle>
    <vehicle id="99" depart="396.00" departLane="best" departSpeed="max">
        <route edges="11132380#1 534971017#0"/>
    </vehicle>
    <vehicle id="101" depart="404.00" departLane="best" departSpeed="max">
        <route edges="1033114986#0 534909560 -1113602600#2"/>
    </vehicle>
    <vehicle id="102" depart="408.00" departLane="best" departSpeed="max">
        <route edges="1061061170#0 534585126#0 534585127#0"/>
    </vehicle>
    <vehicle id="104" depart="416.00" departLane="best" departSpeed="max">
        <route edges="-11126842#2 897446895#0 -11132380#3"/>
    </vehicle>
    <vehicle id="105" depart="420.00" departLane="best" departSpeed="max">
        <route edges="1033114986#0 534909560 534585127#0 897446895#0 534971017#0"/>
    </vehicle>
    <vehicle id="106" depart="424.00" departLane="best" departSpeed="max">
        <route edges="1061061170#0 534585126#0 534585127#0 897446895#0 -11132380#3"/>
    </vehicle>
    <vehicle id="108" depart="432.00" departLane="best" departSpeed="max">
        <route edges="1308087258#1 534585127#0 897446895#0"/>
    </vehicle>
    <vehicle id="109" depart="436.00" departLane="best" departSpeed="max">
        <route edges="1308087258#1 -1113602603#2 -1033114986#1"/>
    </vehicle>
    <vehicle id="110" depart="440.00" departLane="best" departSpeed="max">
        <route edges="534909560 -1113602600#2"/>
    </vehicle>
    <vehicle id="111" depart="444.00" departLane="best" departSpeed="max">
        <route edges="1308087258#1 534585127#0 897446895#0 534971017#0"/>
    </vehicle>
    <vehicle id="112" depart="448.00" departLane="best" departSpeed="max">
        <route edges="-1113602603#2 -1033114986#1"/>
    </vehicle>
    <vehicle id="113" depart="452.00" departLane="best" departSpeed="max">
        <route edges="1033114986#0 534909560 534585125#0"/>
    </vehicle>
    <vehicle id="114" depart="456.00" departLane="best" departSpeed="max">
        <route edges="534585126#0 534585127#0 897446895#0 -11132380#3"/>
    </vehicle>
    <vehicle id="115" depart="460.00" departLane="best" departSpeed="max">
        <route edges="1308087258#1 534585127#0 897446895#0 -11132380#3"/>
    </vehicle>
    <vehicle id="116" depart="464.00" departLane="best" departSpeed="max">
        <route edges="11132380#1 534971017#0"/>
    </vehicle>
    <vehicle id="118" depart="472.00" departLane="best" departSpeed="max">
        <route edges="1061061170#0 534585126#0 -1113602600#2"/>
    </vehicle>
    <vehicle id="120" depart="480.00" departLane="best" departSpeed="max">
        <route edges="1308087258#1 534585127#0 897446895#0 -11132380#3"/>
    </vehicle>
    <vehicle id="121" depart="484.00" departLane="best" departSpeed="max">
        <route edges="534585127#0 11126842#0"/>
    </vehicle>
    <vehicle id="122" depart="488.00" departLane="best" departSpeed="max">
        <route edges="1061061170#0 534585126#0 -1113602603#2 -1033114986#1"/>
    </vehicle>
    <vehicle id="123" depart="492.00" departLane="best" departSpeed="max">
        <route edges="-11126842#2 897446895#0 534971017#0"/>
    </vehicle>
    <vehicle id="126" depart="504.00" departLane="best" departSpeed="max">
        <route edges="-1113602603#2 -1033114986#1"/>
    </vehicle>
    <vehicle id="128" depart="512.00" departLane="best" departSpeed="max">
        <route edges="905795884#0 -11132380#3"/>
    </vehicle>
    <vehicle id="131" depart="524.00" departLane="best" departSpeed="max">
        <route edges="897446895#0"/>
    </vehicle>
    <vehicle id="132" depart="528.00" departLane="best" departSpeed="max">
        <route edges="534909560 534585127#0 897446895#0 534971017#0"/>
    </vehicle>
    <vehicle id="134" depart="536.00" departLane="best" departSpeed="max">
        <route edges="534909560 534585127#0 897446895#0 534971017#0"/>
    </vehicle>
    <vehicle id="135" depart="540.00" departLane="best" departSpeed="max">
        <route edges="534909560 -1113602600#2"/>
    </vehicle>
    <vehicle id="136" depart="544.00" departLane="best" departSpeed="max">
        <route edges="534585128#0 -1113602603#2 -1033114986#1"/>
    </vehicle>
    <vehicle id="137" depart="548.00" departLane="best" departSpeed="max">
        <route edges="1033114986#0 534909560"/>
    </vehicle>
    <vehicle id="138" depart="552.00" departLane="best" departSpeed="max">
        <route edges="11132380#1 534585128#0 -1113602600#2"/>
    </vehicle>
    <vehicle id="140" depart="560.00" departLane="best" departSpeed="max">
        <route edges="-11126842#2 897446895#0 -11132380#3"/>
    </vehicle>
    <vehicle id="141" depart="564.00" departLane="best" departSpeed="max">
        <route edges="905795884#0 534585128#0 -1113602600#2"/>
    </vehicle>
    <vehicle id="143" depart="572.00" departLane="best" departSpeed="max">
        <route edges="905795884#0 534585128#0 -1113602603#2 -1033114986#1"/>
    </vehicle>
    <vehicle id="144" depart="576.00" departLane="best" departSpeed="max">
        <route edges="905795884#0 -11132380#3"/>
    </vehicle>
    <vehicle id="145" depart="580.00" departLane="best" departSpeed="max">
        <route edges="905795884#0 -11132380#3"/>
    </vehicle>
    <vehicle id="146" depart="584.00" departLane="best" departSpeed="max">
        <route edges="534585126#0 -1113602600#2"/>
    </vehicle>
    <vehicle id="147" depart="588.00" departLane="best" departSpeed="max">
        <route edges="1308087258#1 534585127#0 11126842#0"/>
    </vehicle>
    <vehicle id="149" depart="596.00" departLane="best" departSpeed="max">
        <route edges="-11126842#2 897446895#0 534971017#0"/>
    </vehicle>
    <vehicle id="152" depart="608.00" departLane="best" departSpeed="max">
        <route edges="1061061170#0 534585126#0 -1113602603#2 -1033114986#1"/>
    </vehicle>
    <vehicle id="153" depart="612.00" departLane="best" departSpeed="max">
        <route edges="534585126#0 -1113602600#2"/>
    </vehicle>
    <vehicle id="154" depart="616.00" departLane="best" departSpeed="max">
        <route edges="1061061170#0 534585126#0 -1113602603#2"/>
    </vehicle>
    <vehicle id="155" depart="620.00" departLane="best" departSpeed="max">
        <route edges="1061061170#0 534585126#0 -1113602600#2"/>
    </vehicle>
    <vehicle id="157" depart="628.00" departLane="best" departSpeed="max">
        <route edges="1061061170#0 534585126#0 534585127#0 11126842#0"/>
    </vehicle>
    <vehicle id="159" depart="636.00" departLane="best" departSpeed="max">
        <route edges="1308087258#1 534585127#0 11126842#0"/>
    </vehicle>
    <vehicle id="160" depart="640.00" departLane="best" departSpeed="max">
        <route edges="11132380#1 534971017#0"/>
    </vehicle>
    <vehicle id="162" depart="648.00" departLane="best" departSpeed="max">
        <route edges="534909560 534585127#0"/>
    </vehicle>
    <vehicle id="163" depart="652.00" departLane="best" departSpeed="max">
        <route edges="1308087258#1 534585127#0 897446895#0 -11132380#3"/>
    </vehicle>
    <vehicle id="164" depart="656.00" departLane="best" departSpeed="max">
        <route edges="1033114986#0 534909560 534585127#0 11126842#0"/>
    </vehicle>
    <vehicle id="166" depart="664.00" departLane="best" departSpeed="max">
        <route edges="1033114986#0 534909560 534585125#0"/>
    </vehicle>
    <vehicle id="167" depart="668.00" departLane="best" departSpeed="max">
        <route edges="1308087258#1 -1113602603#2 -1033114986#1"/>
    </vehicle>
    <vehicle id="169" depart="676.00" departLane="best" departSpeed="max">
        <route edges="1033114986#0 534909560 534585127#0 897446895#0 534971017#0"/>
    </vehicle>
    <vehicle id="170" depart="680.00" departLane="best" departSpeed="max">
        <route edges="11132380#1 534585128#0 -1113602603#2 -1033114986#1"/>
    </vehicle>
    <vehicle id="171" depart="684.00" departLane="best" departSpeed="max">
        <route edges="1033114986#0 534909560 534585127#0 897446895#0 534971017#0"/>
    </vehicle>
    <vehicle id="173" depart="692.00" departLane="best" departSpeed="max">
        <route edges="1308087258#1 534585127#0 897446895#0"/>
    </vehicle>
    <vehicle id="174" depart="696.00" departLane="best" departSpeed="max">
        <route edges="1308087258#1 534585127#0 897446895#0 534971017#0"/>
    </vehicle>
    <vehicle id="175" depart="700.00" departLane="best" departSpeed="max">
        <route edges="534585126#0 534585127#0 11126842#0"/>
    </vehicle>
    <vehicle id="176" depart="704.00" departLane="best" departSpeed="max">
        <route edges="534909560 534585127#0 11126842#0"/>
    </vehicle>
    <vehicle id="178" depart="712.00" departLane="best" departSpeed="max">
        <route edges="1033114986#0 534909560 534585125#0"/>
    </vehicle>
    <vehicle id="179" depart="716.00" departLane="best" departSpeed="max">
        <route edges="534585127#0 11126842#0"/>
    </vehicle>
    <vehicle id="181" depart="724.00" departLane="best" departSpeed="max">
        <route edges="1033114986#0 534909560 -1113602600#2"/>
    </vehicle>
    <vehicle id="182" depart="728.00" departLane="best" departSpeed="max">
        <route edges="1033114986#0 534909560 534585125#0"/>
    </vehicle>
    <vehicle id="183" depart="732.00" departLane="best" departSpeed="max">
        <route edges="534585126#0 -1113602603#2 -1033114986#1"/>
    </vehicle>
    <vehicle id="184" depart="736.00" departLane="best" departSpeed="max">
        <route edges="1061061170#0 534585126#0 534585127#0 11126842#0"/>
    </vehicle>
    <vehicle id="185" depart="740.00" departLane="best" departSpeed="max">
        <route edges="1061061170#0 534585126#0 534585127#0 897446895#0 -11132380#3"/>
    </vehicle>
    <vehicle id="186" depart="744.00" departLane="best" departSpeed="max">
        <route edges="1308087258#1 534585125#0"/>
    </vehicle>
    <vehicle id="187" depart="748.00" departLane="best" departSpeed="max">
        <route edges="1061061170#0 534585126#0 -1113602603#2 -1033114986#1"/>
    </vehicle>
    <vehicle id="188" depart="752.00" departLane="best" departSpeed="max">
        <route edges="1061061170#0 534585126#0 534585127#0"/>
    </vehicle>
    <vehicle id="189" depart="756.00" departLane="best" departSpeed="max">
        <route edges="897446895#0 534971017#0"/>
    </vehicle>
    <vehicle id="190" depart="760.00" departLane="best" departSpeed="max">
        <route edges="1061061170#0 534585126#0 534585127#0"/>
    </vehicle>
    <vehicle id="191" depart="764.00" departLane="best" departSpeed="max">
        <route edges="11132380#1 534585128#0 534585125#0"/>
    </vehicle>
    <vehicle id="192" depart="768.00" departLane="best" departSpeed="max">
        <route edges="1033114986#0 534909560 534585127#0 897446895#0 -11132380#3"/>
    </vehicle>
    <vehicle id="193" depart="772.00" departLane="best" departSpeed="max">
        <route edges="11132380#1 534585128#0 -1113602603#2 -1033114986#1"/>
    </vehicle>
    <vehicle id="194" depart="776.00" departLane="best" departSpeed="max">
        <route edges="1061061170#0 534585126#0 534585127#0 897446895#0 -11132380#3"/>
    </vehicle>
    <vehicle id="195" depart="780.00" departLane="best" departSpeed="max">
        <route edges="11132380#1 534585128#0 -1113602603#2 -1033114986#1"/>
    </vehicle>
    <vehicle id="196" depart="784.00" departLane="best" departSpeed="max">
        <route edges="1308087258#1 -1113602603#2 -1033114986#1"/>
    </vehicle>
    <vehicle id="197" depart="788.00" departLane="best" departSpeed="max">
        <route edges="1061061170#0 534585126#0 534585127#0 11126842#0"/>
    </vehicle>
    <vehicle id="201" depart="804.00" departLane="best" departSpeed="max">
        <route edges="1033114986#0 534909560 -1113602600#2"/>
    </vehicle>
    <vehicle id="203" depart="812.00" departLane="best" departSpeed="max">
        <route edges="905795884#0 534585128#0 -1113602600#2"/>
    </vehicle>
    <vehicle id="205" depart="820.00" departLane="best" departSpeed="max">
        <route edges="1308087258#1 534585127#0"/>
    </vehicle>
    <vehicle id="206" depart="824.00" departLane="best" departSpeed="max">
        <route edges="905795884#0 -11132380#3"/>
    </vehicle>
    <vehicle id="207" depart="828.00" departLane="best" departSpeed="max">
        <route edges="-11126842#2 897446895#0 -11132380#3"/>
    </vehicle>
    <vehicle id="210" depart="840.00" departLane="best" departSpeed="max">
        <route edges="1033114986#0 534909560 534585125#0"/>
    </vehicle>
    <vehicle id="212" depart="848.00" departLane="best" departSpeed="max">
        <route edges="534909560 534585127#0 897446895#0 534971017#0"/>
    </vehicle>
    <vehicle id="214" depart="856.00" departLane="best" departSpeed="max">
        <route edges="905795884#0 534585128#0 -1113602600#2"/>
    </vehicle>
    <vehicle id="215" depart="860.00" departLane="best" departSpeed="max">
        <route edges="534585126#0 -1113602603#2 -1033114986#1"/>
    </vehicle>
    <vehicle id="216" depart="864.00" departLane="best" departSpeed="max">
        <route edges="1308087258#1 534585125#0"/>
    </vehicle>
    <vehicle id="219" depart="876.00" departLane="best" departSpeed="max">
        <route edges="-11126842#2 897446895#0"/>
    </vehicle>
    <vehicle id="220" depart="880.00" departLane="best" departSpeed="max">
        <route edges="534585128#0 -1113602600#2"/>
    </vehicle>
    <vehicle id="221" depart="884.00" departLane="best" departSpeed="max">
        <route edges="1061061170#0 534585126#0 -1113602600#2"/>
    </vehicle>
    <vehicle id="222" depart="888.00" departLane="best" departSpeed="max">
        <route edges="11132380#1 534585128#0 -1113602600#2"/>
    </vehicle>
    <vehicle id="224" depart="896.00" departLane="best" departSpeed="max">
        <route edges="-11126842#2 897446895#0 534971017#0"/>
    </vehicle>
    <vehicle id="226" depart="904.00" departLane="best" departSpeed="max">
        <route edges="534585126#0 534585127#0 11126842#0"/>
    </vehicle>
    <vehicle id="227" depart="908.00" departLane="best" departSpeed="max">
        <route edges="534585127#0 897446895#0 534971017#0"/>
    </vehicle>
    <vehicle id="228" depart="912.00" departLane="best" departSpeed="max">
        <route edges="1033114986#0 534909560"/>
    </vehicle>
    <vehicle id="231" depart="924.00" departLane="best" departSpeed="max">
        <route edges="1033114986#0 534909560 534585127#0 897446895#0 534971017#0"/>
    </vehicle>
    <vehicle id="232" depart="928.00" departLane="best" departSpeed="max">
        <route edges="905795884#0 -11132380#3"/>
    </vehicle>
    <vehicle id="233" depart="932.00" departLane="best" departSpeed="max">
        <route edges="11132380#1 534585128#0 534585125#0"/>
    </vehicle>
    <vehicle id="234" depart="936.00" departLane="best" departSpeed="max">
        <route edges="1061061170#0 534585126#0 -1113602603#2 -1033114986#1"/>
    </vehicle>
    <vehicle id="235" depart="940.00" departLane="best" departSpeed="max">
        <route edges="897446895#0 -11132380#3"/>
    </vehicle>
    <vehicle id="237" depart="948.00" departLane="best" departSpeed="max">
        <route edges="534585126#0 -1113602600#2"/>
    </vehicle>
    <vehicle id="238" depart="952.00" departLane="best" departSpeed="max">
        <route edges="-11126842#2 897446895#0 534971017#0"/>
    </vehicle>
    <vehicle id="241" depart="964.00" departLane="best" departSpeed="max">
        <route edges="1308087258#1 534585125#0"/>
    </vehicle>
    <vehicle id="242" depart="968.00" departLane="best" departSpeed="max">
        <route edges="11132380#1 534585128#0"/>
    </vehicle>
    <vehicle id="243" depart="972.00" departLane="best" departSpeed="max">
        <route edges="-11126842#2 897446895#0 -11132380#3"/>
    </vehicle>
    <vehicle id="244" depart="976.00" departLane="best" departSpeed="max">
        <route edges="1308087258#1 534585127#0 11126842#0"/>
    </vehicle>
    <vehicle id="245" depart="980.00" departLane="best" departSpeed="max">
        <route edges="11132380#1 534585128#0 -1113602603#2"/>
    </vehicle>
    <vehicle id="247" depart="988.00" departLane="best" departSpeed="max">
        <route edges="534585126#0 -1113602600#2"/>
    </vehicle>
    <vehicle id="249" depart="996.00" departLane="best" departSpeed="max">
        <route edges="1033114986#0 534909560 534585127#0 897446895#0 -11132380#3"/>
    </vehicle>
    <vehicle id="252" depart="1008.00" departLane="best" departSpeed="max">
        <route edges="1033114986#0 534909560 534585127#0 897446895#0 -11132380#3"/>
    </vehicle>
    <vehicle id="253" depart="1012.00" departLane="best" departSpeed="max">
        <route edges="11132380#1 534585128#0 -1113602600#2"/>
    </vehicle>
    <vehicle id="255" depart="1020.00" departLane="best" departSpeed="max">
        <route edges="1308087258#1 -1113602603#2 -1033114986#1"/>
    </vehicle>
    <vehicle id="260" depart="1040.00" departLane="best" departSpeed="max">
        <route edges="-11126842#2 897446895#0 -11132380#3"/>
    </vehicle>
    <vehicle id="261" depart="1044.00" departLane="best" departSpeed="max">
        <route edges="11132380#1 534585128#0 -1113602600#2"/>
    </vehicle>
    <vehicle id="262" depart="1048.00" departLane="best" departSpeed="max">
        <route edges="905795884#0 534585128#0 -1113602603#2 -1033114986#1"/>
    </vehicle>
    <vehicle id="266" depart="1064.00" departLane="best" departSpeed="max">
        <route edges="11132380#1 534971017#0"/>
    </vehicle>
    <vehicle id="267" depart="1068.00" departLane="best" departSpeed="max">
        <route edges="905795884#0 534585128#0 -1113602600#2"/>
    </vehicle>
    <vehicle id="268" depart="1072.00" departLane="best" departSpeed="max">
        <route edges="1308087258#1 534585125#0"/>
    </vehicle>
    <vehicle id="269" depart="1076.00" departLane="best" departSpeed="max">
        <route edges="534585127#0 897446895#0 534971017#0"/>
    </vehicle>
    <vehicle id="270" depart="1080.00" departLane="best" departSpeed="max">
        <route edges="1033114986#0 534909560 534585127#0 897446895#0 -11132380#3"/>
    </vehicle>
    <vehicle id="271" depart="1084.00" departLane="best" departSpeed="max">
        <route edges="1308087258#1 534585127#0 897446895#0 -11132380#3"/>
    </vehicle>
    <vehicle id="273" depart="1092.00" departLane="best" departSpeed="max">
        <route edges="534585126#0 534585127#0 11126842#0"/>
    </vehicle>
    <vehicle id="274" depart="1096.00" departLane="best" departSpeed="max">
        <route edges="1308087258#1 534585127#0 897446895#0 534971017#0"/>
    </vehicle>
    <vehicle id="275" depart="1100.00" departLane="best" departSpeed="max">
        <route edges="534585128#0 534585125#0"/>
    </vehicle>
    <vehicle id="276" depart="1104.00" departLane="best" departSpeed="max">
        <route edges="1308087258#1 534585127#0 897446895#0 534971017#0"/>
    </vehicle>