<?xml version="1.0" encoding="UTF-8"?>

<!-- generated on 2024-11-07 15:42:44 by Eclipse SUMO netedit Version 1.20.0
<configuration xmlns:xsi="http://www.w3.org/2001/XMLSchema-instance" xsi:noNamespaceSchemaLocation="http://sumo.dlr.de/xsd/neteditConfiguration.xsd">

    <input>
        <sumo-net-file value="osm.net.xml.gz"/>
    </input>

    <output>
        <output-file value="osm.net.xml.gz"/>
        <output.street-names value="true"/>
    </output>

    <processing>
        <geometry.min-radius.fix.railways value="false"/>
        <geometry.max-grade.fix value="false"/>
        <offset.disable-normalization value="true"/>
        <lefthand value="0"/>
    </processing>

    <junctions>
        <no-turnarounds value="true"/>
        <junctions.corner-detail value="5"/>
        <junctions.limit-turn-speed value="5.50"/>
        <rectangular-lane-cut value="0"/>
    </junctions>

    <pedestrian>
        <walkingareas value="0"/>
    </pedestrian>

</configuration>
-->

<net version="1.20" junctionCornerDetail="5" limitTurnSpeed="5.50" xmlns:xsi="http://www.w3.org/2001/XMLSchema-instance" xsi:noNamespaceSchemaLocation="http://sumo.dlr.de/xsd/net_file.xsd">

    <location netOffset="-585506.13,-2879531.31" convBoundary="-73.52,7.31,469.85,256.71" origBoundary="-80.145379,26.032203,-80.140722,26.034520" projParameter="+proj=utm +zone=17 +ellps=WGS84 +datum=WGS84 +units=m +no_defs"/>

    <type id="highway.primary" priority="12" numLanes="2" speed="27.78" disallow="tram rail_urban rail rail_electric rail_fast ship container cable_car subway aircraft wheelchair scooter drone" oneway="0"/>
    <type id="highway.residential" priority="3" numLanes="1" speed="13.89" disallow="tram rail_urban rail rail_electric rail_fast ship container cable_car subway aircraft wheelchair scooter drone" oneway="0"/>

    <edge id=":10792698#0-AddedOffRampNode_0" function="internal">
        <lane id=":10792698#0-AddedOffRampNode_0_0" index="0" disallow="tram rail_urban rail rail_electric rail_fast ship container cable_car subway aircraft wheelchair scooter drone" speed="17.88" length="8.24" shape="173.50,160.78 171.05,161.20 169.50,162.26 167.95,163.33 165.50,163.80"/>
        <lane id=":10792698#0-AddedOffRampNode_0_1" index="1" disallow="tram rail_urban rail rail_electric rail_fast ship container cable_car subway aircraft wheelchair scooter drone" speed="17.88" length="8.24" shape="173.50,160.78 165.54,160.60"/>
        <lane id=":10792698#0-AddedOffRampNode_0_2" index="2" disallow="tram rail_urban rail rail_electric rail_fast ship container cable_car subway aircraft wheelchair scooter drone" speed="17.88" length="8.24" shape="173.61,157.59 165.58,157.40"/>
    </edge>
    <edge id=":12128959238_0" function="internal">
        <lane id=":12128959238_0_0" index="0" disallow="tram rail_urban rail rail_electric rail_fast ship container cable_car subway aircraft wheelchair scooter drone" speed="15.65" length="8.60" shape="216.27,104.86 216.73,107.33 217.80,108.89 218.87,110.44 219.33,112.91"/>
        <lane id=":12128959238_0_1" index="1" disallow="tram rail_urban rail rail_electric rail_fast ship container cable_car subway aircraft wheelchair scooter drone" speed="15.65" length="8.60" shape="213.07,104.81 213.53,107.27 214.60,108.83 215.67,110.39 216.13,112.86"/>
        <lane id=":12128959238_0_2" index="2" disallow="tram rail_urban rail rail_electric rail_fast ship container cable_car subway aircraft wheelchair scooter drone" speed="15.65" length="8.60" shape="209.87,104.75 210.33,107.22 211.40,108.77 212.47,110.33 212.93,112.80"/>
        <lane id=":12128959238_0_3" index="3" disallow="tram rail_urban rail rail_electric rail_fast ship container cable_car subway aircraft wheelchair scooter drone" speed="15.65" length="8.60" shape="209.87,104.75 209.73,112.75"/>
    </edge>
    <edge id=":12128959238_4" function="internal">
        <lane id=":12128959238_4_0" index="0" disallow="tram rail_urban rail rail_electric rail_fast ship container cable_car subway aircraft wheelchair scooter drone" speed="15.65" length="8.01" shape="203.33,112.64 203.47,104.63"/>
        <lane id=":12128959238_4_1" index="1" disallow="tram rail_urban rail rail_electric rail_fast ship container cable_car subway aircraft wheelchair scooter drone" speed="15.65" length="8.01" shape="206.53,112.69 206.67,104.69"/>
    </edge>
    <edge id=":12157011180_0" function="internal">
        <lane id=":12157011180_0_0" index="0" disallow="tram rail_urban rail rail_electric rail_fast ship container cable_car subway aircraft wheelchair scooter drone" speed="17.88" length="8.21" shape="91.51,142.98 93.91,142.74 95.51,142.20 97.12,141.66 99.52,141.42"/>
        <lane id=":12157011180_0_1" index="1" disallow="tram rail_urban rail rail_electric rail_fast ship container cable_car subway aircraft wheelchair scooter drone" speed="17.88" length="8.21" shape="91.49,146.18 93.89,145.94 95.50,145.40 97.10,144.86 99.50,144.62"/>
        <lane id=":12157011180_0_2" index="2" disallow="tram rail_urban rail rail_electric rail_fast ship container cable_car subway aircraft wheelchair scooter drone" speed="17.88" length="8.21" shape="91.49,146.18 93.89,146.44 95.49,147.00 97.09,147.56 99.48,147.82"/>
    </edge>
    <edge id=":2888269152_0" function="internal">
        <lane id=":2888269152_0_0" index="0" disallow="tram rail_urban rail rail_electric rail_fast ship container cable_car subway aircraft wheelchair scooter drone" speed="6.71" length="9.48" shape="15.53,159.00 12.44,158.86 10.13,159.40 8.59,160.62 7.84,162.52"/>
    </edge>
    <edge id=":2888269152_1" function="internal">
        <lane id=":2888269152_1_0" index="0" disallow="tram rail_urban rail rail_electric rail_fast ship container cable_car subway aircraft wheelchair scooter drone" speed="15.88" length="14.42" shape="15.53,159.00 11.32,158.25 8.45,157.57 5.57,157.04 1.32,156.76"/>
        <lane id=":2888269152_1_1" index="1" disallow="tram rail_urban rail rail_electric rail_fast ship container cable_car subway aircraft wheelchair scooter drone" speed="15.88" length="18.03" shape="15.46,155.76 10.17,154.91 6.56,154.23 2.94,153.74 -2.40,153.47"/>
    </edge>
    <edge id=":2888269152_3" function="internal">
        <lane id=":2888269152_3_0" index="0" disallow="tram rail_urban rail rail_electric rail_fast ship container cable_car subway aircraft wheelchair scooter drone" speed="10.02" length="20.60" shape="15.38,152.52 11.29,151.01 8.39,147.78 6.68,142.84 6.16,136.19"/>
    </edge>
    <edge id=":2888269152_4" function="internal">
        <lane id=":2888269152_4_0" index="0" disallow="tram rail_urban rail rail_electric rail_fast ship container cable_car subway aircraft wheelchair scooter drone" speed="6.92" length="10.64" shape="9.36,136.07 9.69,139.30 10.78,141.59 12.60,142.92 15.17,143.31"/>
    </edge>
    <edge id=":2888269152_5" function="internal">
        <lane id=":2888269152_5_0" index="0" disallow="tram rail_urban rail rail_electric rail_fast ship container cable_car subway aircraft wheelchair scooter drone" speed="6.33" length="8.96" shape="0.55,141.51 2.98,141.35 4.73,140.41 5.79,138.69 6.16,136.19"/>
    </edge>
    <edge id=":2888269152_6" function="internal">
        <lane id=":2888269152_6_0" index="0" disallow="tram rail_urban rail rail_electric rail_fast ship container cable_car subway aircraft wheelchair scooter drone" speed="15.88" length="14.94" shape="0.55,141.51 4.90,142.08 7.85,142.72 10.81,143.21 15.17,143.31"/>
        <lane id=":2888269152_6_1" index="1" disallow="tram rail_urban rail rail_electric rail_fast ship container cable_car subway aircraft wheelchair scooter drone" speed="15.88" length="14.94" shape="0.28,144.70 4.73,145.28 7.76,145.92 10.79,146.41 15.24,146.51"/>
    </edge>
    <edge id=":2888269152_8" function="internal">
        <lane id=":2888269152_8_0" index="0" disallow="tram rail_urban rail rail_electric rail_fast ship container cable_car subway aircraft wheelchair scooter drone" speed="8.95" length="19.11" shape="0.02,147.88 4.29,149.12 7.01,151.97 8.20,156.44 7.84,162.52"/>
    </edge>
    <edge id=":2888269152_9" function="internal">
        <lane id=":2888269152_9_0" index="0" disallow="tram rail_urban rail rail_electric rail_fast ship container cable_car subway aircraft wheelchair scooter drone" speed="5.20" length="6.05" shape="5.17,160.16 5.16,158.71 4.51,157.66 3.23,157.01 1.32,156.76"/>
    </edge>
    <edge id=":3909546816_0" function="internal">
        <lane id=":3909546816_0_0" index="0" disallow="tram rail_urban rail rail_electric rail_fast ship container cable_car subway aircraft wheelchair scooter drone" speed="7.56" length="11.93" shape="426.29,177.61 425.81,173.91 424.61,171.23 422.68,169.58 420.03,168.95"/>
    </edge>
    <edge id=":3909546816_1" function="internal">
        <lane id=":3909546816_1_0" index="0" disallow="tram rail_urban rail rail_electric rail_fast ship container cable_car subway aircraft wheelchair scooter drone" speed="13.89" length="30.63" shape="426.29,177.61 426.41,146.98"/>
    </edge>
    <edge id=":3909546816_2" function="internal">
        <lane id=":3909546816_2_0" index="0" disallow="tram rail_urban rail rail_electric rail_fast ship container cable_car subway aircraft wheelchair scooter drone" speed="10.23" length="24.67" shape="426.29,177.61 426.84,169.58 428.99,163.87 432.75,160.49 438.11,159.43"/>
    </edge>
    <edge id=":3909546816_3" function="internal">
        <lane id=":3909546816_3_0" index="0" disallow="tram rail_urban rail rail_electric rail_fast ship container cable_car subway aircraft wheelchair scooter drone" speed="7.24" length="11.49" shape="437.88,171.76 434.15,172.18 431.51,173.28 429.95,175.06 429.48,177.53"/>
    </edge>
    <edge id=":3909546816_4" function="internal">
        <lane id=":3909546816_4_0" index="0" disallow="tram rail_urban rail rail_electric rail_fast ship container cable_car subway aircraft wheelchair scooter drone" speed="17.01" length="18.11" shape="437.88,171.76 432.55,171.44 428.96,170.54 425.36,169.56 420.03,168.95"/>
        <lane id=":3909546816_4_1" index="1" disallow="tram rail_urban rail rail_electric rail_fast ship container cable_car subway aircraft wheelchair scooter drone" speed="17.01" length="18.11" shape="437.94,168.56 432.63,168.24 429.04,167.34 425.46,166.36 420.15,165.76"/>
    </edge>
    <edge id=":3909546816_6" function="internal">
        <lane id=":3909546816_6_0" index="0" speed="10.22" length="24.69" shape="438.00,165.36 432.73,164.29 429.04,160.88 426.93,155.11 426.41,146.98"/>
    </edge>
    <edge id=":3909546816_7" function="internal">
        <lane id=":3909546816_7_0" index="0" disallow="tram rail_urban rail rail_electric rail_fast ship container cable_car subway aircraft wheelchair scooter drone" speed="7.33" length="11.85" shape="432.81,147.17 433.05,151.10 434.02,153.92 435.73,155.63 438.17,156.23"/>
    </edge>
    <edge id=":3909546816_8" function="internal">
        <lane id=":3909546816_8_0" index="0" disallow="tram rail_urban rail rail_electric rail_fast ship container cable_car subway aircraft wheelchair scooter drone" speed="13.89" length="30.54" shape="432.81,147.17 429.48,177.53"/>
    </edge>
    <edge id=":3909546816_9" function="internal">
        <lane id=":3909546816_9_0" index="0" disallow="tram rail_urban rail rail_electric rail_fast ship container cable_car subway aircraft wheelchair scooter drone" speed="10.04" length="23.07" shape="429.61,147.08 428.81,155.37 426.97,161.25 424.08,164.71 420.15,165.76"/>
    </edge>
    <edge id=":3909546816_10" function="internal">
        <lane id=":3909546816_10_0" index="0" disallow="tram rail_urban rail rail_electric rail_fast ship container cable_car subway aircraft wheelchair scooter drone" speed="6.41" length="8.99" shape="420.65,152.26 423.11,152.08 424.89,151.13 425.99,149.44 426.41,146.98"/>
    </edge>
    <edge id=":3909546816_11" function="internal">
        <lane id=":3909546816_11_0" index="0" disallow="tram rail_urban rail rail_electric rail_fast ship container cable_car subway aircraft wheelchair scooter drone" speed="20.12" length="17.68" shape="420.53,155.46 438.17,156.23"/>
        <lane id=":3909546816_11_1" index="1" disallow="tram rail_urban rail rail_electric rail_fast ship container cable_car subway aircraft wheelchair scooter drone" speed="20.12" length="17.68" shape="420.41,158.66 438.11,159.43"/>
    </edge>
    <edge id=":3909546816_13" function="internal">
        <lane id=":3909546816_13_0" index="0" disallow="tram rail_urban rail rail_electric rail_fast ship container cable_car subway aircraft wheelchair scooter drone" speed="9.74" length="19.99" shape="420.29,161.86 424.16,163.07 426.98,166.08 428.76,170.90 429.48,177.53"/>
    </edge>
    <edge id=":4636661369_0" function="internal">
        <lane id=":4636661369_0_0" index="0" disallow="tram rail_urban rail rail_electric rail_fast ship container cable_car subway aircraft wheelchair scooter drone" speed="20.12" length="8.21" shape="313.11,150.80 315.52,150.65 317.14,150.16 318.76,149.67 321.17,149.52"/>
        <lane id=":4636661369_0_1" index="1" disallow="tram rail_urban rail rail_electric rail_fast ship container cable_car subway aircraft wheelchair scooter drone" speed="20.12" length="8.21" shape="312.99,154.00 315.39,153.85 317.02,153.36 318.64,152.87 321.05,152.71"/>
    </edge>
    <edge id=":9157643867_0" function="internal">
        <lane id=":9157643867_0_0" index="0" disallow="tram rail_urban rail rail_electric rail_fast ship container cable_car subway aircraft wheelchair scooter drone" speed="20.12" length="8.58" shape="345.78,150.47 348.28,150.06 349.88,149.04 351.49,148.03 353.99,147.70"/>
        <lane id=":9157643867_0_1" index="1" disallow="tram rail_urban rail rail_electric rail_fast ship container cable_car subway aircraft wheelchair scooter drone" speed="20.12" length="8.58" shape="345.78,150.47 353.77,150.90"/>
        <lane id=":9157643867_0_2" index="2" disallow="tram rail_urban rail rail_electric rail_fast ship container cable_car subway aircraft wheelchair scooter drone" speed="20.12" length="8.58" shape="345.78,150.47 348.20,151.06 349.67,152.23 351.13,153.42 353.55,154.09"/>
        <lane id=":9157643867_0_3" index="3" disallow="tram rail_urban rail rail_electric rail_fast ship container cable_car subway aircraft wheelchair scooter drone" speed="20.12" length="8.58" shape="345.65,153.67 348.05,154.26 349.49,155.43 350.94,156.62 353.33,157.28"/>
    </edge>
    <edge id=":9157643868_0" function="internal">
        <lane id=":9157643868_0_0" index="0" disallow="tram rail_urban rail rail_electric rail_fast ship container cable_car subway aircraft wheelchair scooter drone" speed="20.12" length="8.21" shape="240.94,146.38 243.34,146.23 244.96,145.74 246.59,145.25 248.99,145.10"/>
        <lane id=":9157643868_0_1" index="1" disallow="tram rail_urban rail rail_electric rail_fast ship container cable_car subway aircraft wheelchair scooter drone" speed="20.12" length="8.21" shape="240.94,146.38 243.32,146.73 244.90,147.34 246.48,147.95 248.87,148.30"/>
        <lane id=":9157643868_0_2" index="2" disallow="tram rail_urban rail rail_electric rail_fast ship container cable_car subway aircraft wheelchair scooter drone" speed="20.12" length="8.21" shape="240.81,149.58 243.20,149.93 244.78,150.54 246.36,151.15 248.74,151.49"/>
    </edge>
    <edge id=":95966300_0" function="internal">
        <lane id=":95966300_0_0" index="0" disallow="tram rail_urban rail rail_electric rail_fast ship container cable_car subway aircraft wheelchair scooter drone" speed="6.50" length="9.03" shape="434.34,221.19 431.88,221.48 430.11,222.48 429.02,224.21 428.61,226.65"/>
    </edge>
    <edge id=":95966300_1" function="internal">
        <lane id=":95966300_1_0" index="0" disallow="tram rail_urban rail rail_electric rail_fast ship container cable_car subway aircraft wheelchair scooter drone" speed="13.89" length="14.50" shape="434.34,221.19 419.85,220.67"/>
    </edge>
    <edge id=":95966300_2" function="internal">
        <lane id=":95966300_2_0" index="0" disallow="tram rail_urban rail rail_electric rail_fast ship container cable_car subway aircraft wheelchair scooter drone" speed="8.01" length="14.25" shape="434.34,221.19 430.50,220.54 427.79,218.80 426.21,215.99 425.77,212.10"/>
    </edge>
    <edge id=":95966300_3" function="internal">
        <lane id=":95966300_3_0" index="0" disallow="tram rail_urban rail rail_electric rail_fast ship container cable_car subway aircraft wheelchair scooter drone" speed="6.52" length="9.08" shape="428.97,212.19 429.25,214.67 430.26,216.47 431.98,217.57 434.43,217.99"/>
    </edge>
    <edge id=":95966300_4" function="internal">
        <lane id=":95966300_4_0" index="0" disallow="tram rail_urban rail rail_electric rail_fast ship container cable_car subway aircraft wheelchair scooter drone" speed="13.89" length="14.46" shape="428.97,212.19 428.61,226.65"/>
    </edge>
    <edge id=":95966300_5" function="internal">
        <lane id=":95966300_5_0" index="0" disallow="tram rail_urban rail rail_electric rail_fast ship container cable_car subway aircraft wheelchair scooter drone" speed="7.97" length="4.06" shape="428.97,212.19 428.31,216.05 428.23,216.17"/>
    </edge>
    <edge id=":95966300_13" function="internal">
        <lane id=":95966300_13_0" index="0" disallow="tram rail_urban rail rail_electric rail_fast ship container cable_car subway aircraft wheelchair scooter drone" speed="7.97" length="10.20" shape="428.23,216.17 426.57,218.75 423.75,220.29 419.85,220.67"/>
    </edge>
    <edge id=":95966300_6" function="internal">
        <lane id=":95966300_6_0" index="0" disallow="tram rail_urban rail rail_electric rail_fast ship container cable_car subway aircraft wheelchair scooter drone" speed="6.47" length="9.03" shape="419.99,217.48 422.46,217.24 424.25,216.26 425.35,214.55 425.77,212.10"/>
    </edge>
    <edge id=":95966300_7" function="internal">
        <lane id=":95966300_7_0" index="0" disallow="tram rail_urban rail rail_electric rail_fast ship container cable_car subway aircraft wheelchair scooter drone" speed="13.89" length="14.44" shape="419.99,217.48 434.43,217.99"/>
    </edge>
    <edge id=":95966300_8" function="internal">
        <lane id=":95966300_8_0" index="0" disallow="tram rail_urban rail rail_electric rail_fast ship container cable_car subway aircraft wheelchair scooter drone" speed="8.09" length="14.28" shape="419.99,217.48 423.84,218.20 426.55,219.97 428.15,222.78 428.61,226.65"/>
    </edge>
    <edge id=":95966300_9" function="internal">
        <lane id=":95966300_9_0" index="0" disallow="tram rail_urban rail rail_electric rail_fast ship container cable_car subway aircraft wheelchair scooter drone" speed="6.62" length="9.20" shape="425.41,226.58 425.11,224.09 424.08,222.28 422.33,221.14 419.85,220.67"/>
    </edge>
    <edge id=":95966300_10" function="internal">
        <lane id=":95966300_10_0" index="0" disallow="tram rail_urban rail rail_electric rail_fast ship container cable_car subway aircraft wheelchair scooter drone" speed="13.89" length="14.48" shape="425.41,226.58 425.77,212.10"/>
    </edge>
    <edge id=":95966300_11" function="internal">
        <lane id=":95966300_11_0" index="0" disallow="tram rail_urban rail rail_electric rail_fast ship container cable_car subway aircraft wheelchair scooter drone" speed="7.99" length="4.09" shape="425.41,226.58 426.05,222.73 426.15,222.57"/>
    </edge>
    <edge id=":95966300_12" function="internal">
        <lane id=":95966300_12_0" index="0" disallow="tram rail_urban rail rail_electric rail_fast ship container cable_car subway aircraft wheelchair scooter drone" speed="3.65" length="1.44" shape="425.41,226.58 426.24,225.40"/>
    </edge>
    <edge id=":95966300_14" function="internal">
        <lane id=":95966300_14_0" index="0" disallow="tram rail_urban rail rail_electric rail_fast ship container cable_car subway aircraft wheelchair scooter drone" speed="7.99" length="10.12" shape="426.15,222.57 427.76,220.02 430.55,218.44 434.43,217.99"/>
    </edge>
    <edge id=":95966300_15" function="internal">
        <lane id=":95966300_15_0" index="0" disallow="tram rail_urban rail rail_electric rail_fast ship container cable_car subway aircraft wheelchair scooter drone" speed="3.65" length="3.23" shape="426.24,225.40 427.05,225.01 427.84,225.43 428.61,226.65"/>
    </edge>
    <edge id=":96007120_0" function="internal">
        <lane id=":96007120_0_0" index="0" disallow="tram rail_urban rail rail_electric rail_fast ship container cable_car subway aircraft wheelchair scooter drone" speed="6.46" length="9.03" shape="217.12,211.60 214.65,211.84 212.87,212.82 211.78,214.53 211.37,216.98"/>
    </edge>
    <edge id=":96007120_1" function="internal">
        <lane id=":96007120_1_0" index="0" disallow="tram rail_urban rail rail_electric rail_fast ship container cable_car subway aircraft wheelchair scooter drone" speed="9.42" length="19.55" shape="217.12,211.60 210.48,210.77 205.74,208.98 202.92,206.21 202.02,202.48"/>
        <lane id=":96007120_1_1" index="1" disallow="tram rail_urban rail rail_electric rail_fast ship container cable_car subway aircraft wheelchair scooter drone" speed="8.77" length="16.82" shape="217.12,211.60 211.88,210.83 208.14,209.06 205.92,206.29 205.22,202.52"/>
    </edge>
    <edge id=":96007120_3" function="internal">
        <lane id=":96007120_3_0" index="0" disallow="tram rail_urban rail rail_electric rail_fast ship container cable_car subway aircraft wheelchair scooter drone" speed="6.63" length="9.17" shape="211.62,202.60 211.94,205.04 212.99,206.82 214.77,207.94 217.27,208.40"/>
    </edge>
    <edge id=":96007120_4" function="internal">
        <lane id=":96007120_4_0" index="0" disallow="tram rail_urban rail rail_electric rail_fast ship container cable_car subway aircraft wheelchair scooter drone" speed="14.77" length="14.37" shape="211.62,202.60 211.37,216.98"/>
        <lane id=":96007120_4_1" index="1" disallow="tram rail_urban rail rail_electric rail_fast ship container cable_car subway aircraft wheelchair scooter drone" speed="14.77" length="14.37" shape="208.42,202.56 208.17,216.91"/>
    </edge>
    <edge id=":96007120_6" function="internal">
        <lane id=":96007120_6_0" index="0" disallow="tram rail_urban rail rail_electric rail_fast ship container cable_car subway aircraft wheelchair scooter drone" speed="14.77" length="14.30" shape="198.57,216.71 198.82,202.44"/>
        <lane id=":96007120_6_1" index="1" disallow="tram rail_urban rail rail_electric rail_fast ship container cable_car subway aircraft wheelchair scooter drone" speed="14.77" length="14.30" shape="201.77,216.78 202.02,202.48"/>
        <lane id=":96007120_6_2" index="2" disallow="tram rail_urban rail rail_electric rail_fast ship container cable_car subway aircraft wheelchair scooter drone" speed="14.77" length="14.30" shape="204.97,216.85 205.22,202.52"/>
    </edge>
    <edge id=":96007120_9" function="internal">
        <lane id=":96007120_9_0" index="0" disallow="tram rail_urban rail rail_electric rail_fast ship container cable_car subway aircraft wheelchair scooter drone" speed="8.63" length="16.98" shape="204.97,216.85 205.81,212.95 208.14,210.24 211.96,208.73 217.27,208.40"/>
    </edge>
    <edge id=":96007840_0" function="internal">
        <lane id=":96007840_0_0" index="0" disallow="tram rail_urban rail rail_electric rail_fast ship container cable_car subway aircraft wheelchair scooter drone" speed="3.90" length="2.64" shape="11.83,47.11 11.11,47.19 10.59,47.48 10.28,47.98 10.17,48.70"/>
    </edge>
    <edge id=":96007840_1" function="internal">
        <lane id=":96007840_1_0" index="0" disallow="tram rail_urban rail rail_electric rail_fast ship container cable_car subway aircraft wheelchair scooter drone" speed="6.07" length="7.92" shape="6.97,48.67 7.30,46.51 8.24,45.00 9.80,44.14 11.97,43.92"/>
    </edge>
    <edge id=":96043615_0" function="internal">
        <lane id=":96043615_0_0" index="0" disallow="tram rail_urban rail rail_electric rail_fast ship container cable_car subway aircraft wheelchair scooter drone" speed="15.65" length="14.45" shape="214.03,46.27 213.82,60.73"/>
        <lane id=":96043615_0_1" index="1" disallow="tram rail_urban rail rail_electric rail_fast ship container cable_car subway aircraft wheelchair scooter drone" speed="15.65" length="14.45" shape="210.83,46.23 210.62,60.67"/>
    </edge>
    <edge id=":96043615_2" function="internal">
        <lane id=":96043615_2_0" index="0" disallow="tram rail_urban rail rail_electric rail_fast ship container cable_car subway aircraft wheelchair scooter drone" speed="8.62" length="3.79" shape="210.83,46.23 210.07,49.94"/>
    </edge>
    <edge id=":96043615_8" function="internal">
        <lane id=":96043615_8_0" index="0" disallow="tram rail_urban rail rail_electric rail_fast ship container cable_car subway aircraft wheelchair scooter drone" speed="8.62" length="13.22" shape="210.07,49.94 210.02,50.15 207.71,52.88 203.90,54.42 198.59,54.77"/>
    </edge>
    <edge id=":96043615_3" function="internal">
        <lane id=":96043615_3_0" index="0" disallow="tram rail_urban rail rail_electric rail_fast ship container cable_car subway aircraft wheelchair scooter drone" speed="6.44" length="9.03" shape="198.72,51.57 201.19,51.32 202.97,50.33 204.05,48.61 204.43,46.16"/>
    </edge>
    <edge id=":96043615_4" function="internal">
        <lane id=":96043615_4_0" index="0" disallow="tram rail_urban rail rail_electric rail_fast ship container cable_car subway aircraft wheelchair scooter drone" speed="8.75" length="16.87" shape="198.72,51.57 203.98,52.33 207.72,54.09 209.93,56.88 210.62,60.67"/>
    </edge>
    <edge id=":96043615_5" function="internal">
        <lane id=":96043615_5_0" index="0" disallow="tram rail_urban rail rail_electric rail_fast ship container cable_car subway aircraft wheelchair scooter drone" speed="6.61" length="9.17" shape="204.22,60.57 203.90,58.12 202.86,56.34 201.09,55.22 198.59,54.77"/>
    </edge>
    <edge id=":96043615_6" function="internal">
        <lane id=":96043615_6_0" index="0" disallow="tram rail_urban rail rail_electric rail_fast ship container cable_car subway aircraft wheelchair scooter drone" speed="15.65" length="14.42" shape="204.22,60.57 204.43,46.16"/>
        <lane id=":96043615_6_1" index="1" disallow="tram rail_urban rail rail_electric rail_fast ship container cable_car subway aircraft wheelchair scooter drone" speed="15.65" length="14.42" shape="207.42,60.62 207.63,46.19"/>
    </edge>
    <edge id=":9662851400_0" function="internal">
        <lane id=":9662851400_0_0" index="0" disallow="tram rail_urban rail rail_electric rail_fast ship container cable_car subway aircraft wheelchair scooter drone" speed="20.12" length="8.21" shape="308.89,165.10 306.49,165.27 304.87,165.77 303.25,166.26 300.84,166.43"/>
        <lane id=":9662851400_0_1" index="1" disallow="tram rail_urban rail rail_electric rail_fast ship container cable_car subway aircraft wheelchair scooter drone" speed="20.12" length="8.21" shape="309.00,161.90 306.60,162.07 304.98,162.57 303.36,163.07 300.95,163.23"/>
        <lane id=":9662851400_0_2" index="2" disallow="tram rail_urban rail rail_electric rail_fast ship container cable_car subway aircraft wheelchair scooter drone" speed="20.12" length="8.21" shape="309.00,161.90 306.61,161.57 305.03,160.97 303.45,160.37 301.06,160.04"/>
    </edge>
    <edge id=":9662851401_0" function="internal">
        <lane id=":9662851401_0_0" index="0" disallow="tram rail_urban rail rail_electric rail_fast ship container cable_car subway aircraft wheelchair scooter drone" speed="20.12" length="8.21" shape="290.22,166.07 287.82,166.24 286.20,166.74 284.58,167.23 282.17,167.40"/>
        <lane id=":9662851401_0_1" index="1" disallow="tram rail_urban rail rail_electric rail_fast ship container cable_car subway aircraft wheelchair scooter drone" speed="20.12" length="8.21" shape="290.33,162.88 287.92,163.04 286.30,163.54 284.68,164.04 282.28,164.21"/>
        <lane id=":9662851401_0_2" index="2" disallow="tram rail_urban rail rail_electric rail_fast ship container cable_car subway aircraft wheelchair scooter drone" speed="20.12" length="8.21" shape="290.44,159.68 288.03,159.85 286.41,160.34 284.79,160.84 282.39,161.01"/>
        <lane id=":9662851401_0_3" index="3" disallow="tram rail_urban rail rail_electric rail_fast ship container cable_car subway aircraft wheelchair scooter drone" speed="20.12" length="8.21" shape="290.44,159.68 288.05,159.35 286.46,158.74 284.88,158.14 282.49,157.81"/>
    </edge>
    <edge id=":9938762116_0" function="internal">
        <lane id=":9938762116_0_0" index="0" disallow="tram rail_urban rail rail_electric rail_fast ship container cable_car subway aircraft wheelchair scooter drone" speed="15.65" length="8.54" shape="213.55,76.42 214.01,78.89 215.08,80.45 216.15,82.00 216.61,84.47"/>
        <lane id=":9938762116_0_1" index="1" disallow="tram rail_urban rail rail_electric rail_fast ship container cable_car subway aircraft wheelchair scooter drone" speed="15.65" length="8.54" shape="210.35,76.37 210.81,78.84 211.88,80.39 212.95,81.95 213.41,84.42"/>
        <lane id=":9938762116_0_2" index="2" disallow="tram rail_urban rail rail_electric rail_fast ship container cable_car subway aircraft wheelchair scooter drone" speed="15.65" length="8.54" shape="210.35,76.37 210.21,84.37"/>
    </edge>
    <edge id=":9938762116_3" function="internal">
        <lane id=":9938762116_3_0" index="0" disallow="tram rail_urban rail rail_electric rail_fast ship container cable_car subway aircraft wheelchair scooter drone" speed="15.65" length="8.00" shape="203.81,84.26 203.95,76.26"/>
        <lane id=":9938762116_3_1" index="1" disallow="tram rail_urban rail rail_electric rail_fast ship container cable_car subway aircraft wheelchair scooter drone" speed="15.65" length="8.00" shape="207.01,84.31 207.15,76.31"/>
    </edge>
    <edge id=":cluster_2888269153_95968367_0" function="internal">