<?xml version="1.0" encoding="UTF-8"?>

<!-- generated on 2024-11-07 15:40:24 by Eclipse SUMO sumo Version 1.20.0
-->

<configuration xmlns:xsi="http://www.w3.org/2001/XMLSchema-instance" xsi:noNamespaceSchemaLocation="http://sumo.dlr.de/xsd/sumoConfiguration.xsd">

    <input>
        <net-file value="../../../../../usr/local/Cellar/sumo/1.20.0/share/sumo/tools/2024-11-07-13-21-03/osm.net.xml.gz"/>
    </input>

</configuration>
