<?xml version="1.0" encoding="UTF-8"?>

<!-- generated on 2024-11-05 10:55:19 by Eclipse SUMO netedit Version 1.20.0
<configuration xmlns:xsi="http://www.w3.org/2001/XMLSchema-instance" xsi:noNamespaceSchemaLocation="http://sumo.dlr.de/xsd/neteditConfiguration.xsd">

    <input>
        <sumo-net-file value="osm.net.xml"/>
    </input>

    <output>
        <output-file value="osm.net.xml"/>
        <output.street-names value="true"/>
    </output>

    <processing>
        <geometry.min-radius.fix.railways value="false"/>
        <geometry.max-grade.fix value="false"/>
        <offset.disable-normalization value="true"/>
        <lefthand value="0"/>
    </processing>

    <junctions>
        <no-turnarounds value="true"/>
        <junctions.corner-detail value="5"/>
        <junctions.limit-turn-speed value="5.50"/>
        <rectangular-lane-cut value="0"/>
    </junctions>

    <pedestrian>
        <walkingareas value="0"/>
    </pedestrian>

</configuration>
-->

<net version="1.20" junctionCornerDetail="5" limitTurnSpeed="5.50" xmlns:xsi="http://www.w3.org/2001/XMLSchema-instance" xsi:noNamespaceSchemaLocation="http://sumo.dlr.de/xsd/net_file.xsd">

    <location netOffset="-564741.92,-2846068.21" convBoundary="38.96,75.04,579.67,282.93" origBoundary="-80.354546,25.731086,-80.348633,25.734356" projParameter="+proj=utm +zone=17 +ellps=WGS84 +datum=WGS84 +units=m +no_defs"/>

    <type id="highway.primary" priority="12" numLanes="2" speed="27.78" disallow="tram rail_urban rail rail_electric rail_fast ship container cable_car subway aircraft wheelchair scooter drone" oneway="0"/>
    <type id="highway.residential" priority="3" numLanes="1" speed="13.89" disallow="tram rail_urban rail rail_electric rail_fast ship container cable_car subway aircraft wheelchair scooter drone" oneway="0"/>
    <type id="highway.tertiary" priority="10" numLanes="1" speed="22.22" disallow="tram rail_urban rail rail_electric rail_fast ship container cable_car subway aircraft wheelchair scooter drone" oneway="0"/>

    <edge id=":1828212482_0" function="internal">
        <lane id=":1828212482_0_0" index="0" disallow="tram rail_urban rail rail_electric rail_fast ship container cable_car subway aircraft wheelchair scooter drone" speed="6.48" length="9.03" shape="389.81,162.60 390.06,165.07 391.03,166.86 392.74,167.97 395.19,168.39"/>
    </edge>
    <edge id=":1828212482_1" function="internal">
        <lane id=":1828212482_1_0" index="0" disallow="tram rail_urban rail rail_electric rail_fast ship container cable_car subway aircraft wheelchair scooter drone" speed="6.52" length="9.07" shape="380.78,167.87 383.24,167.62 385.03,166.64 386.16,164.92 386.62,162.47"/>
    </edge>
    <edge id=":1828212482_2" function="internal">
        <lane id=":1828212482_2_0" index="0" disallow="tram rail_urban rail rail_electric rail_fast ship container cable_car subway aircraft wheelchair scooter drone" speed="17.88" length="14.46" shape="380.78,167.87 395.19,168.39"/>
        <lane id=":1828212482_2_1" index="1" disallow="tram rail_urban rail rail_electric rail_fast ship container cable_car subway aircraft wheelchair scooter drone" speed="17.88" length="14.46" shape="380.64,171.07 395.09,171.59"/>
        <lane id=":1828212482_2_2" index="2" disallow="tram rail_urban rail rail_electric rail_fast ship container cable_car subway aircraft wheelchair scooter drone" speed="17.88" length="14.46" shape="380.51,174.26 395.00,174.79"/>
    </edge>
    <edge id=":2004969331_0" function="internal">
        <lane id=":2004969331_0_0" index="0" disallow="tram rail_urban rail rail_electric rail_fast ship container cable_car subway aircraft wheelchair scooter drone" speed="17.88" length="8.21" shape="139.09,159.26 141.49,159.08 143.11,158.58 144.73,158.08 147.13,157.90"/>
        <lane id=":2004969331_0_1" index="1" disallow="tram rail_urban rail rail_electric rail_fast ship container cable_car subway aircraft wheelchair scooter drone" speed="17.88" length="8.21" shape="138.99,162.46 141.40,162.28 143.01,161.78 144.63,161.28 147.04,161.10"/>
        <lane id=":2004969331_0_2" index="2" disallow="tram rail_urban rail rail_electric rail_fast ship container cable_car subway aircraft wheelchair scooter drone" speed="17.88" length="8.21" shape="138.90,165.66 141.30,165.48 142.92,164.98 144.54,164.48 146.94,164.30"/>
        <lane id=":2004969331_0_3" index="3" disallow="tram rail_urban rail rail_electric rail_fast ship container cable_car subway aircraft wheelchair scooter drone" speed="17.88" length="8.21" shape="138.90,165.66 141.28,165.98 142.87,166.58 144.45,167.18 146.84,167.50"/>
    </edge>
    <edge id=":5519108610_0" function="internal">
        <lane id=":5519108610_0_0" index="0" disallow="tram rail_urban rail rail_electric rail_fast ship container cable_car subway aircraft wheelchair scooter drone" speed="15.65" length="9.20" shape="285.68,110.37 286.54,113.05 288.67,114.46 290.80,115.90 291.68,118.64"/>
        <lane id=":5519108610_0_1" index="1" disallow="tram rail_urban rail rail_electric rail_fast ship container cable_car subway aircraft wheelchair scooter drone" speed="15.65" length="9.20" shape="285.68,110.37 286.05,112.85 287.07,114.43 288.10,116.02 288.48,118.50"/>
        <lane id=":5519108610_0_2" index="2" disallow="tram rail_urban rail rail_electric rail_fast ship container cable_car subway aircraft wheelchair scooter drone" speed="15.65" length="9.20" shape="285.68,110.37 285.29,118.35"/>
    </edge>
    <edge id=":5519108610_3" function="internal">
        <lane id=":5519108610_3_0" index="0" disallow="tram rail_urban rail rail_electric rail_fast ship container cable_car subway aircraft wheelchair scooter drone" speed="15.65" length="8.42" shape="282.09,118.21 281.70,115.71 280.68,114.12 279.66,112.52 279.29,110.03"/>
        <lane id=":5519108610_3_1" index="1" disallow="tram rail_urban rail rail_electric rail_fast ship container cable_car subway aircraft wheelchair scooter drone" speed="15.65" length="8.42" shape="282.09,118.21 282.48,110.20"/>
    </edge>
    <edge id=":cluster_1828212480_99165374_0" function="internal">
        <lane id=":cluster_1828212480_99165374_0_0" index="0" disallow="tram rail_urban rail rail_electric rail_fast ship container cable_car subway aircraft wheelchair scooter drone" speed="6.88" length="9.94" shape="280.47,191.03 280.06,188.48 278.85,186.63 276.84,185.48 274.04,185.03"/>
    </edge>
    <edge id=":cluster_1828212480_99165374_1" function="internal">
        <lane id=":cluster_1828212480_99165374_1_0" index="0" disallow="tram rail_urban rail rail_electric rail_fast ship container cable_car subway aircraft wheelchair scooter drone" speed="18.93" length="34.71" shape="280.47,191.03 280.50,156.32"/>
    </edge>
    <edge id=":cluster_1828212480_99165374_2" function="internal">
        <lane id=":cluster_1828212480_99165374_2_0" index="0" disallow="tram rail_urban rail rail_electric rail_fast ship container cable_car subway aircraft wheelchair scooter drone" speed="11.01" length="28.82" shape="280.47,191.03 281.35,181.84 284.11,175.37 288.74,171.62 295.26,170.59"/>
    </edge>
    <edge id=":cluster_1828212480_99165374_3" function="internal">
        <lane id=":cluster_1828212480_99165374_3_0" index="0" disallow="tram rail_urban rail rail_electric rail_fast ship container cable_car subway aircraft wheelchair scooter drone" speed="7.72" length="13.55" shape="294.61,185.74 289.81,185.92 286.39,186.86 284.34,188.56 283.67,191.01"/>
    </edge>
    <edge id=":cluster_1828212480_99165374_4" function="internal">
        <lane id=":cluster_1828212480_99165374_4_0" index="0" disallow="tram rail_urban rail rail_electric rail_fast ship container cable_car subway aircraft wheelchair scooter drone" speed="17.88" length="20.62" shape="294.61,185.74 274.04,185.03"/>
        <lane id=":cluster_1828212480_99165374_4_1" index="1" disallow="tram rail_urban rail rail_electric rail_fast ship container cable_car subway aircraft wheelchair scooter drone" speed="17.88" length="20.62" shape="294.74,182.55 274.14,181.83"/>
        <lane id=":cluster_1828212480_99165374_4_2" index="2" disallow="tram rail_urban rail rail_electric rail_fast ship container cable_car subway aircraft wheelchair scooter drone" speed="17.88" length="20.62" shape="294.88,179.35 274.24,178.64"/>
    </edge>
    <edge id=":cluster_1828212480_99165374_7" function="internal">
        <lane id=":cluster_1828212480_99165374_7_0" index="0" disallow="tram rail_urban rail rail_electric rail_fast ship container cable_car subway aircraft wheelchair scooter drone" speed="11.54" length="14.52" shape="294.88,179.35 288.30,177.70 283.70,173.31 283.23,172.02"/>
    </edge>
    <edge id=":cluster_1828212480_99165374_16" function="internal">
        <lane id=":cluster_1828212480_99165374_16_0" index="0" disallow="tram rail_urban rail rail_electric rail_fast ship container cable_car subway aircraft wheelchair scooter drone" speed="11.54" length="16.09" shape="283.23,172.02 281.10,166.19 280.50,156.32"/>
    </edge>
    <edge id=":cluster_1828212480_99165374_8" function="internal">
        <lane id=":cluster_1828212480_99165374_8_0" index="0" disallow="tram rail_urban rail rail_electric rail_fast ship container cable_car subway aircraft wheelchair scooter drone" speed="7.08" length="10.80" shape="290.10,156.34 290.34,159.68 291.33,162.11 293.06,163.61 295.54,164.19"/>
    </edge>
    <edge id=":cluster_1828212480_99165374_9" function="internal">
        <lane id=":cluster_1828212480_99165374_9_0" index="0" disallow="tram rail_urban rail rail_electric rail_fast ship container cable_car subway aircraft wheelchair scooter drone" speed="18.93" length="34.83" shape="286.90,156.33 283.67,191.01"/>
    </edge>
    <edge id=":cluster_1828212480_99165374_10" function="internal">
        <lane id=":cluster_1828212480_99165374_10_0" index="0" disallow="tram rail_urban rail rail_electric rail_fast ship container cable_car subway aircraft wheelchair scooter drone" speed="10.72" length="7.95" shape="283.70,156.33 282.99,164.24"/>
    </edge>
    <edge id=":cluster_1828212480_99165374_17" function="internal">
        <lane id=":cluster_1828212480_99165374_17_0" index="0" disallow="tram rail_urban rail rail_electric rail_fast ship container cable_car subway aircraft wheelchair scooter drone" speed="10.72" length="18.30" shape="282.99,164.24 282.81,166.19 280.94,173.19 278.08,177.34 274.24,178.64"/>
    </edge>
    <edge id=":cluster_1828212480_99165374_11" function="internal">
        <lane id=":cluster_1828212480_99165374_11_0" index="0" disallow="tram rail_urban rail rail_electric rail_fast ship container cable_car subway aircraft wheelchair scooter drone" speed="6.52" length="9.03" shape="274.77,161.80 277.20,161.51 278.97,160.51 280.07,158.78 280.50,156.32"/>
    </edge>
    <edge id=":cluster_1828212480_99165374_12" function="internal">
        <lane id=":cluster_1828212480_99165374_12_0" index="0" disallow="tram rail_urban rail rail_electric rail_fast ship container cable_car subway aircraft wheelchair scooter drone" speed="17.88" length="20.87" shape="274.77,161.80 295.54,164.19"/>
        <lane id=":cluster_1828212480_99165374_12_1" index="1" disallow="tram rail_urban rail rail_electric rail_fast ship container cable_car subway aircraft wheelchair scooter drone" speed="17.88" length="20.87" shape="274.67,164.99 295.40,167.39"/>
        <lane id=":cluster_1828212480_99165374_12_2" index="2" disallow="tram rail_urban rail rail_electric rail_fast ship container cable_car subway aircraft wheelchair scooter drone" speed="17.88" length="20.87" shape="274.57,168.19 295.26,170.59"/>
    </edge>
    <edge id=":cluster_1828212480_99165374_15" function="internal">
        <lane id=":cluster_1828212480_99165374_15_0" index="0" disallow="tram rail_urban rail rail_electric rail_fast ship container cable_car subway aircraft wheelchair scooter drone" speed="10.34" length="8.59" shape="274.47,171.39 278.45,172.72 281.13,176.20"/>
    </edge>
    <edge id=":cluster_1828212480_99165374_18" function="internal">
        <lane id=":cluster_1828212480_99165374_18_0" index="0" disallow="tram rail_urban rail rail_electric rail_fast ship container cable_car subway aircraft wheelchair scooter drone" speed="10.34" length="15.14" shape="281.13,176.20 281.31,176.43 283.05,182.53 283.67,191.01"/>
    </edge>
    <edge id=":cluster_1828212485_99158374_0" function="internal">
        <lane id=":cluster_1828212485_99158374_0_0" index="0" disallow="tram rail_urban rail rail_electric rail_fast ship container cable_car subway aircraft wheelchair scooter drone" speed="6.65" length="9.20" shape="480.12,198.42 479.77,195.89 478.72,194.06 476.99,192.92 474.57,192.47"/>
    </edge>
    <edge id=":cluster_1828212485_99158374_1" function="internal">
        <lane id=":cluster_1828212485_99158374_1_0" index="0" disallow="tram rail_urban rail rail_electric rail_fast ship container cable_car subway aircraft wheelchair scooter drone" speed="10.94" length="28.12" shape="480.12,198.42 480.69,187.79 482.45,180.23 485.39,175.76 489.53,174.37"/>
        <lane id=":cluster_1828212485_99158374_1_1" index="1" disallow="tram rail_urban rail rail_electric rail_fast ship container cable_car subway aircraft wheelchair scooter drone" speed="10.37" length="25.14" shape="480.12,198.42 480.68,189.19 482.43,182.63 485.34,178.76 489.43,177.56"/>
    </edge>
    <edge id=":cluster_1828212485_99158374_3" function="internal">
        <lane id=":cluster_1828212485_99158374_3_0" index="0" disallow="tram rail_urban rail rail_electric rail_fast ship container cable_car subway aircraft wheelchair scooter drone" speed="6.45" length="9.04" shape="488.96,192.91 486.49,193.20 484.72,194.21 483.67,195.95 483.32,198.41"/>
    </edge>
    <edge id=":cluster_1828212485_99158374_4" function="internal">
        <lane id=":cluster_1828212485_99158374_4_0" index="0" disallow="tram rail_urban rail rail_electric rail_fast ship container cable_car subway aircraft wheelchair scooter drone" speed="17.88" length="14.37" shape="488.96,192.91 474.57,192.47"/>
        <lane id=":cluster_1828212485_99158374_4_1" index="1" disallow="tram rail_urban rail rail_electric rail_fast ship container cable_car subway aircraft wheelchair scooter drone" speed="17.88" length="14.37" shape="489.06,189.71 474.69,189.27"/>
        <lane id=":cluster_1828212485_99158374_4_2" index="2" disallow="tram rail_urban rail rail_electric rail_fast ship container cable_car subway aircraft wheelchair scooter drone" speed="17.88" length="14.37" shape="489.15,186.51 474.81,186.07"/>
    </edge>
    <edge id=":cluster_1828212485_99158374_7" function="internal">
        <lane id=":cluster_1828212485_99158374_7_0" index="0" disallow="tram rail_urban rail rail_electric rail_fast ship container cable_car subway aircraft wheelchair scooter drone" speed="17.88" length="14.27" shape="475.38,170.74 489.63,171.17"/>
        <lane id=":cluster_1828212485_99158374_7_1" index="1" disallow="tram rail_urban rail rail_electric rail_fast ship container cable_car subway aircraft wheelchair scooter drone" speed="17.88" length="14.27" shape="475.26,173.94 489.53,174.37"/>
        <lane id=":cluster_1828212485_99158374_7_2" index="2" disallow="tram rail_urban rail rail_electric rail_fast ship container cable_car subway aircraft wheelchair scooter drone" speed="17.88" length="14.27" shape="475.14,177.14 489.43,177.56"/>
    </edge>
    <edge id=":cluster_1828212485_99158374_10" function="internal">
        <lane id=":cluster_1828212485_99158374_10_0" index="0" disallow="tram rail_urban rail rail_electric rail_fast ship container cable_car subway aircraft wheelchair scooter drone" speed="10.50" length="9.63" shape="475.14,177.14 478.71,178.56 481.25,182.57 481.49,183.58"/>
    </edge>
    <edge id=":cluster_1828212485_99158374_11" function="internal">
        <lane id=":cluster_1828212485_99158374_11_0" index="0" disallow="tram rail_urban rail rail_electric rail_fast ship container cable_car subway aircraft wheelchair scooter drone" speed="10.50" length="14.99" shape="481.49,183.58 482.79,189.19 483.32,198.41"/>
    </edge>

    <edge id="-1033114986#1" from="5519108610" to="99289267" name="Southwest 97th Avenue" priority="10" type="highway.tertiary" shape="283.87,114.29 285.20,89.21 285.93,75.04">
        <lane id="-1033114986#1_0" index="0" disallow="tram rail_urban rail rail_electric rail_fast ship container cable_car subway aircraft wheelchair scooter drone" speed="15.65" length="35.29" shape="279.29,110.03 280.41,88.96 281.14,74.79">
            <param key="origId" value="1033114986"/>
        </lane>
        <lane id="-1033114986#1_1" index="1" disallow="tram rail_urban rail rail_electric rail_fast ship container cable_car subway aircraft wheelchair scooter drone" speed="15.65" length="35.29" shape="282.48,110.20 283.60,89.13 284.33,74.96">
            <param key="origId" value="1033114986"/>
        </lane>
    </edge>
    <edge id="-11126842#2" from="5519109023" to="1828212482" name="Southwest 96th Avenue" priority="3" type="highway.residential" shape="392.34,83.94 391.35,98.15 390.22,116.36 388.35,159.42 387.83,171.37">
        <lane id="-11126842#2_0" index="0" disallow="tram rail_urban rail rail_electric rail_fast ship container cable_car subway aircraft wheelchair scooter drone" speed="13.89" length="78.67" shape="393.94,84.05 392.95,98.26 391.82,116.44 389.95,159.49 389.81,162.60">
            <param key="origId" value="11126842"/>
        </lane>
    </edge>
    <edge id="-11132380#3" from="cluster_1828212485_99158374" to="99158372" name="Southwest 95th Avenue" priority="3" type="highway.residential" shape="481.70,189.53 481.72,200.20 481.82,232.85 481.83,237.77 481.84,273.22 481.84,282.93">
        <lane id="-11132380#3_0" index="0" disallow="tram rail_urban rail rail_electric rail_fast ship container cable_car subway aircraft wheelchair scooter drone" speed="13.89" length="84.52" shape="483.32,198.41 483.32,200.20 483.42,232.85 483.43,237.77 483.44,273.22 483.44,282.93">
            <param key="origId" value="11132380"/>
        </lane>
        <param key="origFrom" value="99158374"/>
    </edge>
    <edge id="-1113602600#2" from="cluster_1828212480_99165374" to="384222453" name="Southwest 97th Avenue" priority="10" type="highway.tertiary" shape="282.02,182.08 282.08,192.18 282.07,196.08 281.99,220.17 281.71,275.72">
        <lane id="-1113602600#2_0" index="0" disallow="tram rail_urban rail rail_electric rail_fast ship container cable_car subway aircraft wheelchair scooter drone" speed="22.22" length="84.72" shape="283.67,191.01 283.68,192.17 283.67,196.09 283.59,220.18 283.31,275.73">
            <param key="origId" value="1113602600 1113602600 1308087258"/>
        </lane>
        <param key="origFrom" value="99165374"/>
    </edge>
    <edge id="-1113602603#2" from="cluster_1828212480_99165374" to="5519108610" name="Southwest 97th Avenue" priority="10" type="highway.tertiary" shape="282.00,166.81 282.02,158.61 282.16,154.59 282.57,142.91 283.87,114.29">
        <lane id="-1113602603#2_0" index="0" disallow="tram rail_urban rail rail_electric rail_fast ship container cable_car subway aircraft wheelchair scooter drone" speed="15.65" length="38.15" shape="280.50,156.32 280.56,154.53 280.97,142.85 282.09,118.21">
            <param key="origId" value="1113602603 1113602603 534909560"/>
        </lane>
        <param key="origFrom" value="1828212480"/>
    </edge>
    <edge id="1033114986#0" from="99289267" to="5519108610" name="Southwest 97th Avenue" priority="10" type="highway.tertiary" shape="285.93,75.04 285.20,89.21 283.87,114.29">
        <lane id="1033114986#0_0" index="0" disallow="tram rail_urban rail rail_electric rail_fast ship container cable_car subway aircraft wheelchair scooter drone" speed="15.65" length="35.30" shape="287.53,75.12 286.80,89.29 285.68,110.37">
            <param key="origId" value="1033114986"/>
        </lane>
    </edge>
    <edge id="1061061170#0" from="cluster_1828212479_99073932" to="2004969331" name="Southwest 40th Street" priority="12" type="highway.primary" spreadType="center" shape="39.53,159.30 75.53,160.61 98.24,161.22 127.74,162.11 131.06,162.22 142.99,162.58">
        <lane id="1061061170#0_0" index="0" disallow="tram rail_urban rail rail_electric rail_fast ship container cable_car subway aircraft wheelchair scooter drone" speed="17.88" length="99.51" shape="39.65,156.10 75.63,157.41 98.33,158.02 127.84,158.91 131.16,159.02 139.09,159.26">
            <param key="origId" value="1061061170"/>
        </lane>
        <lane id="1061061170#0_1" index="1" disallow="tram rail_urban rail rail_electric rail_fast ship container cable_car subway aircraft wheelchair scooter drone" speed="17.88" length="99.51" shape="39.53,159.30 75.53,160.61 98.24,161.22 127.74,162.11 131.06,162.22 138.99,162.46">
            <param key="origId" value="1061061170"/>
        </lane>
        <lane id="1061061170#0_2" index="2" disallow="tram rail_urban rail rail_electric rail_fast ship container cable_car subway aircraft wheelchair scooter drone" speed="17.88" length="99.51" shape="39.41,162.50 75.43,163.81 98.15,164.42 127.64,165.31 130.96,165.42 138.90,165.66">
            <param key="origId" value="1061061170"/>
        </lane>
        <param key="origFrom" value="1828212479"/>
        <param key="ref" value="FL 976"/>
    </edge>
    <edge id="11126842#0" from="1828212482" to="5519109023" name="Southwest 96th Avenue" priority="3" type="highway.residential" shape="387.83,171.37 388.35,159.42 390.22,116.36 391.35,98.15 392.34,83.94">
        <lane id="11126842#0_0" index="0" disallow="tram rail_urban rail rail_electric rail_fast ship container cable_car subway aircraft wheelchair scooter drone" speed="13.89" length="78.75" shape="386.62,162.47 386.75,159.35 388.62,116.28 389.75,98.04 390.74,83.83">
            <param key="origId" value="11126842"/>
        </lane>
    </edge>
    <edge id="11132380#1" from="99158372" to="cluster_1828212485_99158374" name="Southwest 95th Avenue" priority="3" type="highway.residential" shape="481.84,282.93 481.84,273.22 481.83,237.77 481.82,232.85 481.72,200.20 481.70,189.53">
        <lane id="11132380#1_0" index="0" disallow="tram rail_urban rail rail_electric rail_fast ship container cable_car subway aircraft wheelchair scooter drone" speed="13.89" length="84.51" shape="480.24,282.93 480.24,273.22 480.23,237.77 480.22,232.85 480.12,200.20 480.12,198.42">
            <param key="origId" value="11132380"/>
        </lane>
        <param key="origTo" value="99158374"/>
    </edge>
    <edge id="1308087258#1" from="384222453" to="cluster_1828212480_99165374" name="Southwest 97th Avenue" priority="10" type="highway.tertiary" shape="281.71,275.72 281.99,220.17 282.07,196.08 282.08,192.18 282.02,182.08">
        <lane id="1308087258#1_0" index="0" disallow="tram rail_urban rail rail_electric rail_fast ship container cable_car subway aircraft wheelchair scooter drone" speed="22.22" length="84.68" shape="280.11,275.71 280.39,220.16 280.47,196.07 280.48,192.19 280.47,191.03">
            <param key="origId" value="1308087258 1113602600 1113602600"/>
        </lane>
        <param key="origTo" value="99165374"/>
    </edge>
    <edge id="534585125#0" from="cluster_1828212480_99165374" to="cluster_1828212479_99073932" name="Southwest 40th Street" priority="12" type="highway.primary" spreadType="center" shape="282.02,182.08 265.08,181.55 250.53,181.10 155.28,178.17 142.56,177.78 77.89,175.79 38.96,174.75">
        <lane id="534585125#0_0" index="0" disallow="tram rail_urban rail rail_electric rail_fast ship container cable_car subway aircraft wheelchair scooter drone" speed="17.88" length="235.21" shape="274.04,185.03 264.98,184.75 250.43,184.30 155.18,181.37 142.46,180.98 77.80,178.99 38.87,177.95">
            <param key="origId" value="534585125"/>
        </lane>
        <lane id="534585125#0_1" index="1" disallow="tram rail_urban rail rail_electric rail_fast ship container cable_car subway aircraft wheelchair scooter drone" speed="17.88" length="235.21" shape="274.14,181.83 265.08,181.55 250.53,181.10 155.28,178.17 142.56,177.78 77.89,175.79 39.07,174.75">
            <param key="origId" value="534585125"/>
        </lane>
        <lane id="534585125#0_2" index="2" disallow="tram rail_urban rail rail_electric rail_fast ship container cable_car subway aircraft wheelchair scooter drone" speed="17.88" length="235.21" shape="274.24,178.64 265.18,178.35 250.63,177.90 155.38,174.97 142.66,174.58 77.98,172.59 39.17,171.55">
            <param key="origId" value="534585125"/>
        </lane>
        <param key="origFrom" value="99165374"/>
        <param key="origTo" value="99073932"/>
        <param key="ref" value="FL 976"/>
    </edge>
    <edge id="534585126#0" from="2004969331" to="cluster_1828212480_99165374" name="Southwest 40th Street" priority="12" type="highway.primary" spreadType="center" shape="142.99,162.58 155.85,162.97 189.64,164.00 224.08,165.05 261.48,166.20 265.32,166.32 282.00,166.81">
        <lane id="534585126#0_0" index="0" disallow="tram rail_urban rail rail_electric rail_fast ship container cable_car subway aircraft wheelchair scooter drone" speed="17.88" length="127.69" shape="147.13,157.90 156.00,158.17 189.79,159.20 224.23,160.25 261.63,161.40 265.46,161.52 274.77,161.80">
            <param key="origId" value="534585126"/>
        </lane>
        <lane id="534585126#0_1" index="1" disallow="tram rail_urban rail rail_electric rail_fast ship container cable_car subway aircraft wheelchair scooter drone" speed="17.88" length="127.69" shape="147.04,161.10 155.90,161.37 189.69,162.40 224.13,163.45 261.53,164.60 265.37,164.72 274.67,164.99">
            <param key="origId" value="534585126"/>
        </lane>
        <lane id="534585126#0_2" index="2" disallow="tram rail_urban rail rail_electric rail_fast ship container cable_car subway aircraft wheelchair scooter drone" speed="17.88" length="127.69" shape="146.94,164.30 155.80,164.57 189.59,165.60 224.03,166.65 261.43,167.80 265.27,167.92 274.57,168.19">
            <param key="origId" value="534585126"/>
        </lane>
        <lane id="534585126#0_3" index="3" disallow="tram rail_urban rail rail_electric rail_fast ship container cable_car subway aircraft wheelchair scooter drone" speed="17.88" length="127.69" shape="146.84,167.50 155.70,167.77 189.49,168.80 223.93,169.85 261.33,171.00 265.18,171.12 274.47,171.39">
            <param key="origId" value="534585126"/>
        </lane>
        <param key="origTo" value="1828212480"/>
        <param key="ref" value="FL 976"/>
    </edge>
    <edge id="534585127#0" from="cluster_1828212480_99165374" to="1828212482" name="Southwest 40th Street" priority="12" type="highway.primary" spreadType="center" shape="282.00,166.81 298.18,167.51 312.22,168.11 355.26,170.00 387.83,171.37">
        <lane id="534585127#0_0" index="0" disallow="tram rail_urban rail rail_electric rail_fast ship container cable_car subway aircraft wheelchair scooter drone" speed="17.88" length="85.32" shape="295.54,164.19 298.32,164.31 312.36,164.91 355.40,166.80 380.78,167.87">
            <param key="origId" value="534585127 534585127 1113602604"/>
        </lane>
        <lane id="534585127#0_1" index="1" disallow="tram rail_urban rail rail_electric rail_fast ship container cable_car subway aircraft wheelchair scooter drone" speed="17.88" length="85.32" shape="295.40,167.39 298.18,167.51 312.22,168.11 355.26,170.00 380.64,171.07">
            <param key="origId" value="534585127 534585127 1113602604"/>
        </lane>
        <lane id="534585127#0_2" index="2" disallow="tram rail_urban rail rail_electric rail_fast ship container cable_car subway aircraft wheelchair scooter drone" speed="17.88" length="85.32" shape="295.26,170.59 298.04,170.71 312.08,171.31 355.12,173.20 380.51,174.26">
            <param key="origId" value="534585127 534585127 1113602604"/>
        </lane>
        <param key="origFrom" value="1828212480"/>
        <param key="ref" value="FL 976"/>
    </edge>
    <edge id="534585128#0" from="cluster_1828212485_99158374" to="cluster_1828212480_99165374" name="Southwest 40th Street" priority="12" type="highway.primary" spreadType="center" shape="481.70,189.53 448.54,188.29 411.94,186.92 403.91,186.62 388.29,186.04 373.60,185.64 326.44,183.73 306.11,182.90 300.84,182.74 297.60,182.65 282.02,182.08">
        <lane id="534585128#0_0" index="0" disallow="tram rail_urban rail rail_electric rail_fast ship container cable_car subway aircraft wheelchair scooter drone" speed="17.88" length="180.07" shape="474.57,192.47 448.42,191.49 411.82,190.12 403.79,189.82 388.19,189.24 373.49,188.84 326.31,186.93 305.99,186.10 300.75,185.94 297.50,185.85 294.61,185.74">
            <param key="origId" value="534585128 534585128 534585128 534585128 534585128 1113602606 1113602605 1113602605"/>
        </lane>
        <lane id="534585128#0_1" index="1" disallow="tram rail_urban rail rail_electric rail_fast ship container cable_car subway aircraft wheelchair scooter drone" speed="17.88" length="180.07" shape="474.69,189.27 448.54,188.29 411.94,186.92 403.91,186.62 388.29,186.04 373.60,185.64 326.44,183.73 306.11,182.90 300.84,182.74 297.60,182.65 294.74,182.55">
            <param key="origId" value="534585128 534585128 534585128 534585128 534585128 1113602606 1113602605 1113602605"/>
        </lane>
        <lane id="534585128#0_2" index="2" disallow="tram rail_urban rail rail_electric rail_fast ship container cable_car subway aircraft wheelchair scooter drone" speed="17.88" length="180.07" shape="474.81,186.07 448.66,185.09 412.06,183.72 404.03,183.42 388.39,182.84 373.71,182.44 326.57,180.53 306.23,179.70 300.93,179.54 297.70,179.45 294.88,179.35">
            <param key="origId" value="534585128 534585128 534585128 534585128 534585128 1113602606 1113602605 1113602605"/>
        </lane>
        <param key="origFrom" value="99158374"/>
        <param key="origTo" value="99165374"/>